16
Lattice="3.22122262 0.01342548 -0.00856637 -0.04106638 6.14775603 0.00444891 0.02280282 -0.00701082 5.80869935" Properties=species:S:1:pos:R:3 enthalpy=-6163.33855109562 pbc="T T T"
H        0.25319441       4.84483749       2.26687513
H        2.92348167       2.97458125       1.14160719
H        0.29802989       0.10681857       4.05016220
H        0.28628229       1.30032197       5.16578559
H        1.75557253       4.32696890       4.02958571
H        2.92680234       3.19037925       4.04448104
H        2.93601890       4.38043036       5.16412875
H        1.42511250       4.90162675       1.12378398
H        1.45758585       1.25458517       4.02166163
H        2.94221901       1.77871136       2.25457843
H        0.25338568       6.03737776       1.14968560
H        1.76357663       1.82693019       1.11800376
N        2.75832194       1.97720414       1.26928286
N        0.46381752       1.10388617       4.17881635
N        0.42976139       5.04240480       1.28000835
N        2.75195106       4.18522689       4.17819335
16
Lattice="3.21129201 0.01114241 0.09322174 -0.02046901 5.77835671 0.04423476 2.99571049 -0.03463647 6.27047651" Properties=species:S:1:pos:R:3 enthalpy=-6163.3382162514 pbc="T T T"
H        1.28512136       0.62746482       1.34970824
H        2.97584110       4.65336119       1.96454391
H        3.18614400       4.63896571       5.05267622
H        4.31306734       4.61302411       6.23173674
H        4.92869208       0.62387343       4.54705544
H        1.76667443       1.73874261       3.26956250
H        2.89239796       1.75438449       4.45018572
H        3.31314896       1.76889987       1.35917073
H        4.36972202       3.50635191       5.02968180
H        1.80029911       3.51624722       1.86627752
H        1.30269579       1.75016368       0.16084216
H        1.77630209       4.62209730       3.07090367
N        1.97716630       4.49976570       2.07984538
N        4.17651144       4.48989366       5.22987551
N        1.10175620       1.61282847       1.14986730
N        5.11466653       1.61182391       4.36273537
16
Lattice="4.82979371 -3.3e-07 2.3e-07 -9.6e-07 4.82977337 6e-08 -2.2e-07 -4.5e-07 4.82978243" Properties=species:S:1:pos:R:3 enthalpy=-6163.33618416254 pbc="T T T"
H        0.52018167       3.52374466       2.96765196
H        2.93507220       3.72092218       1.86212164
H        4.30961475       1.10883548       4.27700988
H        3.72093824       1.86214030       2.93510479
H        1.89473259       1.30600393       0.55277344
H        0.55279605       1.89471217       1.30600746
H        1.30601548       0.55276381       1.89470252
H        1.10884812       4.27701398       4.30957820
H        2.96767559       0.52019858       3.52374498
H        3.52376189       2.96763116       0.52021045
H        1.86211055       2.93507791       3.72092450
H        4.27700166       4.30958335       1.10885225
N        3.78764072       3.45702769       1.37276471
N        3.45705317       1.37274829       3.78765853
N        1.37274228       3.78763979       3.45702404
N        1.04215509       1.04213729       1.04213229
16
Lattice="3.24167775 0.0690356 0.03531161 3.04751364 5.86152721 0.049171 3.1702181 0.03517352 5.9428968" Properties=species:S:1:pos:R:3 enthalpy=-6163.31995341312 pbc="T T T"
H        6.68523758       4.25704084       3.19418674
H        5.64058977       5.24126489       4.88594976
H        2.77872049       1.25501121       2.83072887
H        5.75323996       2.34954253       4.11465085
H        3.58135854       1.30009488      -0.11857841
H        3.75914764       2.33236658       1.14149463
H        1.62318751       1.09597506       0.84541521
H        4.74976915       4.05086806       2.19004184
H        4.72542874       1.11722019       3.83736668
H        5.88969957       4.21298510       6.13573603
H        6.89962245       5.29524182       1.94489016
H        4.61554542       4.00205559       5.13848320
N        5.59886078       4.25946058       5.16106473
N        5.71065810       1.36871257       3.83490894
N        3.75262545       4.24988091       2.19071918
N        3.86688518       1.35815836       0.85718862
16
Lattice="3.20668038 0.31034784 -0.02861623 2.75209045 6.13885989 -0.0273804 0.06046482 0.02839548 5.88741107" Properties=species:S:1:pos:R:3 enthalpy=-6163.3173632086 pbc="T T T"
H        3.48075766       2.05882641       2.75732597
H        2.57351807       0.91460888       1.07629318
H        2.49442478       4.88427844       3.07428765
H        2.34558655       3.82874562       1.83177701
H        3.27970007       4.97712346       6.01277119
H        3.58109133       3.95237046       4.77229410
H        4.53654867       5.25084437       5.00689007
H        1.54695758       2.01617932       3.77357494
H        4.39482931       5.25098102       2.06879099
H        2.70179237       1.96181923      -0.17566519
H        3.79520480       1.03308983       3.99371746
H        1.41315217       2.02565581       0.82387210
N        2.41989743       1.88487414       0.79999273
N        2.19511968       4.80035912       2.10451983
N        3.78469921       2.01825889       3.72859687
N        3.56987768       4.93717852       5.03742650
16
Lattice="3.2490753 0.04756998 -0.0527516 -0.05751413 6.11323019 0.04371772 -3.16181521 -2.78618552 5.81618542" Properties=species:S:1:pos:R:3 enthalpy=-6163.3146033498 pbc="T T T"
H        0.14548512       0.50243116       1.86038196
H       -1.21628392      -1.27896364       4.65767150
H       -1.95730379       2.96318894       3.56816977
H        0.09437299       2.89065900       4.63164063
H       -0.16451022       3.54786150       1.89353818
H        2.00247102       3.43724101       0.64061564
H        1.87224519       4.67724543       1.70388401
H        1.32647491       1.61511640       1.69365434
H       -1.92339710       1.77019023       4.68109431
H       -0.01689326      -0.17099349       4.61971330
H        1.20091772       0.37375770       0.63120295
H       -1.24870825      -0.09266813       3.53704748
N       -1.02125774      -0.28985730       4.51336011
N       -2.15071654       2.75432517       4.54923929
N        1.12666954       0.61905837       1.61950667
N        2.09430463       3.68595777       1.62670647
16
Lattice="4.46807532 -0.13342532 -0.15803539 0.2984859 4.77833091 0.07531409 2.65002807 2.13599565 4.99635091" Properties=species:S:1:pos:R:3 enthalpy=-6163.30805608123 pbc="T T T"
H        5.56033170       5.85170979       4.39791482
H        2.07932831       2.90045008       1.23528814
H        4.06528946       1.00737343       1.95447430
H        3.88567918       1.28238698       0.36142393
H        4.35562153       4.09204397       3.72089168
H        3.81664163       2.75364996       4.51047515
H        3.53469551       2.93613614       2.92140984
H        6.05845787       1.60738559       2.99799040
H        2.69584007       0.54169527       1.18185195
H        0.62787146       3.43644019       0.68803782
H        6.66419012       4.87390854       3.63783204
H        1.29503182       4.14459941       1.99593492
N        1.50818964       3.73851523       1.08938561
N        3.38452831       1.28913309       1.24732343
N        5.92816684       5.56921038       3.49295488
N        3.57396725       3.44467146       3.80149848
16
Lattice="3.21372724 -0.00135052 -0.00613016 -4.665e-05 5.9979376 -0.00068855 0.0248865 0.0012166 6.07320644" Properties=species:S:1:pos:R:3 enthalpy=-6163.30289683062 pbc="T T T"
H        2.93729644       3.25371613       1.36779656
H        0.28268824       1.38711051       2.82364288
H        2.94906314       2.75097822       4.69345509
H        2.95073288       1.61996504       5.85630203
H        0.28745629       4.61969531       3.24554381
H        0.28870394       5.75096388       4.40818602
H        1.44070686       4.59385578       4.39943816
H        1.78536986       4.41083122       1.36449626
H        1.79660251       1.59440488       4.70319357
H        1.42961319       1.41227571       1.66370016
H        2.93195176       4.38392087       0.20426177
H        0.27703764       0.25580762       1.66097826
N        0.43740641       1.25113957       1.82417679
N        2.78968768       1.75567548       4.85780643
N        2.77746778       4.24903084       1.20397119
N        0.44781070       4.75560773       4.24408419
16
Lattice="3.31296171 -0.0588425 0.04687766 -3.21076102 5.76676632 -0.01919024 1.48567386 -2.91258445 5.81625835" Properties=species:S:1:pos:R:3 enthalpy=-6163.29071369564 pbc="T T T"
H        1.22727486       3.01293351       1.73484966
H        0.25379040       4.67403324       0.64814589
H        1.52629573       1.01994510       3.58418426
H        0.65648628       0.63168810       4.88705418
H        4.07532328      -2.28437398       4.93350518
H       -0.48487857       2.66807571       4.51369675
H        0.06280562       3.90055984       3.57778363
H       -0.76658226       2.11555065       1.81907248
H        1.98772932      -0.23424441       4.53681108
H        0.42410524       0.17183277       1.70317428
H        1.48924269       1.80327592       0.65446988
H       -0.83181747       4.97528178       1.82314935
N        0.16493966       4.93225450       1.63145075
N        1.61284892       0.71335616       4.55376550
N        1.55531520       2.05269793       1.64183954
N        3.13668251      -2.16652523       4.56263862
16
Lattice="3.1530495 0.00165211 -0.06939187 -0.02447547 5.70430098 -0.00209976 -0.5088418 0.02861991 6.36871764" Properties=species:S:1:pos:R:3 enthalpy=-6163.27176393473 pbc="T T T"
H        1.06832478       0.80657519       3.38051098
H        1.28873072       3.68048584       6.10056577
H        1.21720151       5.39884598       1.40072802
H        0.10816136       5.38982204       0.22243544
H        1.62829100       2.54935207       1.71425679
H        1.53575852       3.65992805       2.91404729
H        2.73852169       2.55112326       2.89229686
H       -0.15404325       5.39814048       3.40884567
H        1.32968619       0.79913188       0.19785667
H        1.37785906       2.57088029       4.89957975
H        0.95643439       5.41017480       4.58615407
H        2.48843712       2.56849659       6.07751518
N        1.49555592       2.69894620       5.90205131
N        1.10098076       5.52181800       0.39740363
N        0.83904597       5.52991646       3.58252420
N        1.74529370       2.67871769       2.71664572
16
Lattice="3.20755189 0.11260939 -0.05403992 0.37113796 5.88896911 0.04815357 2.79853034 0.01667398 6.2374543" Properties=species:S:1:pos:R:3 enthalpy=-6163.25256227784 pbc="T T T"
H        2.48435692       5.69167565       1.89480310
H        0.80562388       2.70707915       0.07207455
H        4.00778113       5.62923575       6.20664625
H        3.77406186       0.87489656       4.98662063
H        3.92023055       2.69158340       3.16724699
H        3.97008900       3.81643345       4.35215787
H        5.09225912       2.64970391       4.28845317
H        3.64149554       5.74876376       3.03812874
H        5.23525046       5.56784265       5.12952854
H        1.92484892       2.64006527       1.23491588
H        3.28922530       0.94235636       1.76256255
H        0.76058043       3.77031034       1.31411997
N        0.92900146       2.78970975       1.07982929
N        4.24092565       5.76521413       5.22546353
N        3.47854744       5.85311444       2.03786953
N        4.09540952       2.82114956       4.16177639
16
Lattice="3.28881283 0.00014426 0.00078051 0.02971095 6.19179411 0.01235028 -0.0448506 0.49068593 6.17208241" Properties=species:S:1:pos:R:3 enthalpy=-6163.24414121896 pbc="T T T"
H        1.90722683       2.19286846       3.78219131
H        1.34255216       0.85707753       1.88179694
H        1.97775169       5.05070244       0.73865773
H        1.95601094       3.94647523       1.92069824
H        1.35139333       4.20008780       5.00636011
H        0.21559292       5.37353497       4.97676733
H        1.36740300       5.30038944       3.82047343
H        3.05434515       2.26483236       4.94252239
H        3.11179075       5.10173242       1.91266231
H        1.35685508       1.95338230       0.68974369
H        1.90976212       1.09996012       4.97749854
H        0.20127686       2.02570075       1.84222782
N        1.19297286       1.84889679       1.69181696
N        2.12076690       4.93832039       1.74314852
N        2.06299785       2.09102904       4.78593023
N        1.20637800       5.19399398       4.82287684
16
Lattice="3.22691049 -0.04565615 -0.02169836 -1.43952161 6.2339322 -0.05603007 -0.00932755 -0.5593168 5.70486197" Properties=species:S:1:pos:R:3 enthalpy=-6163.23922078394 pbc="T T T"
H       -0.35815597       4.00532736       5.40782930
H        2.19443037       1.01547859       2.98739054
H       -0.38340058       2.87203400       1.32877937
H        2.81915413       1.62715372       0.21679311
H       -0.94872074       4.63773215       2.64544583
H       -1.17279644       5.90348063       1.63596521
H        1.05676548       4.60014914       1.53006558
H       -0.38785929       2.79888186       4.32607591
H        0.82401781       1.78169564       1.30876168
H        0.98088935       1.02989758       4.09084126
H        0.85743793       3.84462164       4.32501289
H        1.94772053      -0.24983910       3.98771766
N        1.95271661       0.76514348       3.94957583
N       -0.18403829       1.87918406       1.21389098
N       -0.15224195       3.78457802       4.43183605
N       -1.19113631       4.88850111       1.68308796
16
Lattice="3.25834296 -0.01557328 0.07012534 -0.1564371 6.94765186 0.083714 0.28815907 3.02554024 5.52830789" Properties=species:S:1:pos:R:3 enthalpy=-6163.23698312124 pbc="T T T"
H        2.53928476       7.29044798       5.55165145
H        2.02991236       2.77239678       3.68500397
H        2.69032960       4.74247551       4.87361212
H        2.49184145       1.24000253       0.89943063
H        0.34195211       6.73670497       2.25656098
H        2.42414384       7.25250808       3.31471070
H        2.42676664       5.69216539       2.80111559
H        0.37691322       8.37174370       4.95376093
H        0.33441779       2.29361194       0.24211619
H        2.00058292       3.20810444       2.11791929
H        2.21177863       5.81211046       0.54148539
H        0.85446335       3.76549497       3.12761054
N        1.84943047       3.56148186       3.06208870
N        2.60054931       2.04960472       0.28694425
N        2.64525948       8.25772522       5.24420783
N        2.60064898       6.65535582       2.50931209
16
Lattice="3.16468642 -0.00107352 -0.00084725 0.00695655 5.96318641 -0.02887453 0.02078232 2.38834957 6.10037668" Properties=species:S:1:pos:R:3 enthalpy=-6163.22703902107 pbc="T T T"
H        2.69570646       1.12034399       2.71452807
H        2.70114930       2.54203557       0.80385180
H        0.98498985       7.96964429       5.70684986
H        2.07413989       5.52558734       0.78989203
H        0.91435520       5.22854030       2.76403972
H        2.09798476       4.10331861       2.70072835
H        2.08617424       5.18971606       3.90173007
H        0.71590791       2.24533847       2.77499972
H        2.14695043       6.82354633       5.69634682
H        0.66535181       4.98593453       5.72031177
H        2.71190845       2.20756231       3.91429842
H        2.66532091       3.84158930       5.70863361
N        2.84091720       4.82969394       5.89632489
N        1.97394369       7.81237014       5.88274939
N        2.88370423       2.10330353       2.91424002
N        1.91129186       5.08613277       2.90215136
16
Lattice="3.17456922 0.15083998 -0.10526379 0.17168766 6.2715466 0.03283113 -0.23826628 0.13871095 5.95380326" Properties=species:S:1:pos:R:3 enthalpy=-6163.2265770442 pbc="T T T"
H        2.16854314       3.22587412       4.49589874
H        0.36596020       5.12261671       4.47221847
H        2.43659290       3.40416369       1.36343959
H        0.44372908       4.37916829       1.53678245
H        1.78541068       0.27695826       1.53211429
H        1.73765394       1.51629575       2.59214740
H        0.60243437       1.38653767       1.43394432
H        2.11860009       2.00907593       5.57204485
H        2.50677673       4.59405974       0.25664749
H        2.34058814       6.36371250       4.28182692
H        0.12997030       1.92640881       4.54992387
H        2.40388795       5.13351215       3.21753818
N        2.53905505       5.36794446       4.20240840
N        2.62408032       4.39918249       1.25265870
N        2.30647333       2.22044185       4.59048842
N        1.59877620       1.27627546       1.60866470
16
Lattice="3.18564176 0.19672258 -0.21472575 0.08379694 6.19084185 -0.00777958 -1.69885128 -3.23537083 5.75776277" Properties=species:S:1:pos:R:3 enthalpy=-6163.21750393123 pbc="T T T"
H       -0.68266920      -0.86257017       5.69970607
H       -0.02733282      -0.90193961       2.59374853
H        2.41752862       4.32875271       0.56104840
H        0.28247012       2.39182426       5.43427499
H       -0.69749813       3.40006557       3.66386345
H        1.35397067       3.37794136       2.31013757
H       -0.52894845       2.20258065       2.55923516
H        1.22098443      -1.55881168       5.05227552
H        1.56653856       1.49279494       4.99596921
H        1.97214230       0.37055756       2.38374677
H        0.57171252       1.05135962       0.80685671
H        0.02275252       0.36650542       3.64319701
N       -0.20084541       0.09600564       2.68115849
N        0.61861058       1.43293872       5.36120076
N       -1.01273342      -1.81959583       5.61638430
N       -0.82538422       3.16726386       2.67878640
16
Lattice="3.25653615 0.00515556 0.01357841 -2.8734319 5.9886631 -0.00175357 0.07317533 -0.12035054 6.45424989" Properties=species:S:1:pos:R:3 enthalpy=-6163.21107160048 pbc="T T T"
H       -1.27768507       4.31614985       6.32603925
H        1.79022385       1.32085048       3.36302471
H        0.69881592       1.50505815       1.29721789
H        1.83809339       1.58496728       0.14689334
H       -0.67016955       5.58654498       1.85753157
H       -0.74277923       4.52034417       3.08848149
H        0.41680390       4.37942419       1.95495344
H        0.78815221       4.46726434       5.23393140
H        1.89830345       2.61945091       1.40166662
H        0.59664400       1.45284469       4.45993000
H       -1.38165346       3.26652214       5.08618997
H        1.68872072       0.25999866       4.59389231
N        1.59134817       1.25016420       4.35893866
N        1.69911094       1.64719475       1.15424739
N       -1.47527614       4.25509236       5.32814788
N       -0.58031191       4.59570501       2.08000199
16
Lattice="3.15013492 -0.01059119 -0.03195581 -0.00714575 6.4787047 0.13830653 -0.35384189 -2.32259131 5.88222107" Properties=species:S:1:pos:R:3 enthalpy=-6163.17339433787 pbc="T T T"
H        1.56262920       2.15802115       0.76909982
H        1.27933679      -0.44344056       4.27663325
H        1.86937815       2.16398474       5.89240291
H        1.86029280       3.67955401       5.34193943
H        1.50320883       3.34358288       2.91723656
H        1.46043381       4.86278692       2.37635646
H        0.36238736       3.79349356       1.85457162
H        0.43992229       1.11960290       0.23636391
H       -0.12064909       2.65638277       4.87904324
H        0.17288059       0.11988093       3.23270148
H        1.52526751       0.65614838       1.34133595
H        1.34914665       1.09755391       3.80113445
N        1.16579534       0.15365042       3.45874702
N        2.03535111       2.71705078       5.05212025
N        1.42771965       1.19033378       0.47709532
N        1.35256095       3.89500092       2.07260460
16
Lattice="3.23717243 0.0270906 0.00039173 0.73765635 6.07311719 -8.384e-05 0.06694592 -0.00606869 6.54816568" Properties=species:S:1:pos:R:3 enthalpy=-6163.172958647 pbc="T T T"
H        2.33516210       5.73135302       1.98803743
H        0.79871343       2.77203594       0.15365616
H        2.42496385       5.68221098       5.26867039
H        1.25302253       5.76756978       6.39442917
H        0.88689939       2.73052115       3.43338355
H        1.00318205       3.85672538       4.61028983
H        2.06976271       2.64303455       4.54945687
H        0.51790424       0.85933717       1.93170475
H        0.62117829       0.82185189       5.21801543
H        1.97212265       2.69234017       1.27690134
H        1.17067570       5.81175548       3.11922774
H        0.89031431       3.89198978       1.34135774
N        0.97965807       2.89363632       1.14875101
N        1.43498021       5.89349659       5.40012789
N        1.34364665       5.93353709       2.12274159
N        1.07924142       2.85571600       4.42562444
