16
Lattice="3.2747144 -0.00089898 -0.05740706 0.00014888 6.19664902 0.00429739 -1.50658444 -0.00213062 7.34928253" Properties=species:S:1:pos:R:3 enthalpy=-815006.655566021 pbc="T T T"
H        2.10909936       5.76234304       2.28325475
H        1.56224657       2.66901745       5.01622701
H        0.13279339       4.83940905       0.79080241
H        0.19228984       1.54714887       3.36859097
H        1.51479911       6.22812772       2.29337584
H        0.22364392       4.64375274       3.98613695
H        0.19653556       4.23785569       3.36212044
H        2.16394142       3.12520399       5.00756907
H        0.23699970       4.04765451       6.56781264
H        0.26503357       1.73983303       6.56461113
H        0.19965702       1.14021071       3.99283046
H        1.87900484       5.99068949       6.01839162
H        0.16160037       0.95114564       0.78623993
H        1.79396180       2.89326102       1.28103788
Lu      -1.37315045       2.89365293       7.34647000
Lu       1.77157862       5.99364025       0.01052249
16
Lattice="3.2741924 -0.01021542 -0.00832001 0.01864284 6.19807683 -0.00899682 -1.61618522 0.01754716 7.33912181" Properties=species:S:1:pos:R:3 enthalpy=-815006.655446679 pbc="T T T"
H       -0.39204249       6.24357322       5.00959930
H        2.83847866       2.67963823       2.26780956
H        1.52388093       4.84999623       6.53442275
H        1.50699425       1.14430936       3.33163038
H        0.19526123       5.76892450       5.00972743
H        1.53044770       4.24106180       3.95194506
H        1.52406447       4.64941507       3.32874862
H        0.18917716       3.11346273       2.27682678
H        1.50453423       4.05004670       0.74426811
H        1.52516411       1.74138818       0.74886435
H        1.51030062       1.55209378       3.95525438
H       -0.11120859       5.99934133       1.26679937
H        1.54047240       0.96179627       6.54097934
H       -0.10635655       2.90880378       6.02112145
Lu       3.15024306       2.88970463      -0.00916560
Lu      -0.09374671       6.01134675       7.28915057
16
Lattice="3.27224059 -0.04204875 0.0436633 -0.04685363 6.19586365 -0.01271506 1.56218645 -9.608e-05 7.29295204" Properties=species:S:1:pos:R:3 enthalpy=-815006.653049847 pbc="T T T"
H        2.75290115       5.73063632       4.99165728
H        3.38295655       3.09745820       2.30948391
H        1.40570364       4.83996553       6.49312664
H        1.52084671       1.53071579       3.94679094
H        3.34322328       6.20164054       4.99691833
H        1.51309640       4.62475551       3.31804502
H        1.34977459       4.24663895       3.93908402
H        2.79101094       2.62840365       2.30418828
H        1.45713098       4.03104518       0.76439607
H        1.48253746       1.72423907       0.76981370
H        1.38883067       1.14448683       3.32328737
H        3.07495436       5.95528027       1.30811257
H        1.42706208       0.95091838       6.50051467
H        3.06007803       2.87359781       5.99307597
Lu       3.11636274       2.85502353       0.03428193
Lu       3.01871988       5.97389857       7.26690536
16
Lattice="3.27112654 -0.04561185 0.03775752 -0.03821954 6.19937643 0.01459614 1.5846637 -0.03209918 7.27047283" Properties=species:S:1:pos:R:3 enthalpy=-815006.652870438 pbc="T T T"
H        1.77288901       0.41326301       2.32586684
H        1.75252178       3.50319328       5.00891430
H        3.11611463       1.31034652       0.82656310
H        3.01474339       4.61096165       3.37628426
H        1.14260657       6.14374020       2.33464330
H        3.18255171       1.89314259       3.37196784
H        3.02106915       1.51488429       3.99338242
H        4.42619263       2.99566037       5.04147368
H        3.08621393       2.09662468       6.54004105
H        3.06407071       4.40433356       6.54458257
H        3.14619448       4.99204423       4.00302272
H        1.46562054       0.17525946       5.98904613
H        3.10018499       5.20176792       0.83601286
H        1.46568500       3.27765323       1.33951853
Lu       4.70184980       3.22572351       7.31601240
Lu       1.50045615       0.18093053       0.05026909
16
Lattice="3.27272696 -0.04720031 0.05205706 -0.03826522 6.19854648 0.05273934 1.48789727 -0.0696736 7.24684376" Properties=species:S:1:pos:R:3 enthalpy=-815006.651850472 pbc="T T T"
H        1.12143813       6.13504980       2.37742445
H        1.07324157       3.02345481       4.99409468
H        3.11190679       1.30059566       0.84726091
H        3.11605151       4.96448736       4.04334294
H        1.75934584       0.39535472       2.33764406
H        2.97804806       1.49576185       3.99702140
H        3.13150873       1.88336029       3.37929564
H        1.67359017       3.48127356       5.01032682
H        2.99195287       2.06015382       6.53526009
H        2.96979987       4.36710197       6.55686683
H        2.95460419       4.61660899       3.40463682
H        1.37121086       0.14000789       5.96790031
H        3.09571811       5.19199962       0.88445872
H        1.45959702       3.26319665       1.36550888
Lu       4.60447291       3.18378246       7.32669515
Lu       1.49817649       0.17772362       0.05876186
16
Lattice="3.27328577 -0.04600509 0.03954302 -0.03766445 6.19493665 -0.02415131 1.51754228 0.00305503 7.22949418" Properties=species:S:1:pos:R:3 enthalpy=-815006.651742955 pbc="T T T"
H        2.98937690       6.12787306       4.91401220
H        3.05660699       3.02414655       2.29288411
H        1.64763245       1.35127450       6.43645808
H        1.60888976       4.64730161       3.90102438
H        3.61084515       0.41147557       4.94641081
H        1.76965661       1.92976058       3.91497356
H        1.62996285       1.55008659       3.28914163
H        0.37760168       3.53610124       2.26112729
H        1.75097035       2.12262971       0.76422609
H        1.72904032       4.42861943       0.75494468
H        1.75477091       5.02307541       3.27428501
H        3.38982312       0.15694853       1.31750767
H        1.63217138       5.24026731       6.42088157
H        3.28216410       3.27055120       5.92217386
Lu       0.11225927       3.29595210      -0.01435680
Lu       3.28644495       0.17842064       7.21467488
16
Lattice="3.27186735 -0.03838377 0.03555866 -0.05081146 6.20200166 -0.03794644 1.54579686 0.02563235 7.22057064" Properties=species:S:1:pos:R:3 enthalpy=-815006.65173019 pbc="T T T"
H        2.73166471       5.75638249       4.89317960
H        3.39032991       3.10700993       2.28746670
H        1.38411668       4.86636319       6.40196685
H        1.38419811       1.16767857       3.28027727
H        3.36742666       0.03231856       4.93579832
H        1.34369454       4.27629444       3.88518497
H        1.49747225       4.64352040       3.25534093
H        2.78817074       2.65132002       2.28541134
H        1.45612401       4.03802084       0.74323169
H        1.48282059       1.72995573       0.75962006
H        1.51035307       1.54858966       3.90830430
H        3.07417064       5.96734292       1.27783609
H        1.40752212       0.97261906       6.42766118
H        3.03744204       2.89574951       5.90470678
Lu       3.11367925       2.86045963       0.01436719
Lu       2.99798472       6.00638613       7.16813466
16
Lattice="3.27213733 -0.04863765 0.00197227 -0.03166467 6.20345306 0.02348172 1.62803599 -0.06573157 7.19752946" Properties=species:S:1:pos:R:3 enthalpy=-815006.651610551 pbc="T T T"
H        2.80048495       5.69536342       4.91691113
H        2.82044279       2.61529983       2.27829805
H        1.47452689       4.78554994       6.42874916
H        1.41959243       1.12047263       3.27130988
H        3.40226204       6.15174287       4.91929729
H        1.40754860       4.21213865       3.91426176
H        1.54469693       4.59393267       3.28905398
H        3.42301727       3.07063112       2.28097453
H        1.47798438       4.02762714       0.76706440
H        1.49753843       1.71958885       0.75872643
H        1.55424317       1.49436494       3.90180334
H        3.10779857       5.94818516       1.30597299
H        1.48667204       0.89034811       6.41495564
H        3.11698004       2.81507018       5.89255248
Lu       3.12423693       2.85202121       0.00884510
Lu       3.10048481       5.91242347       7.18959710
16
Lattice="3.27439127 0.04916892 0.00987837 0.03123206 6.19916751 0.01679666 1.58381931 0.0114825 7.51868346" Properties=species:S:1:pos:R:3 enthalpy=-815006.650418646 pbc="T T T"
H        3.07808838       0.48308124       5.19733490
H        3.12178119       3.58974184       2.30591252
H        1.73234781       1.37323380       6.72979568
H        1.84539435       4.67596825       4.06414384
H        3.69206160       6.20190861       5.21762373
H        1.68651376       1.96950124       4.05635088
H        1.82461495       1.57326527       3.44064315
H        3.70405904       3.10898047       2.30978236
H        1.77621102       2.16916613       0.76737367
H        1.79594579       4.48213851       0.77316828
H        1.69028602       5.06663606       3.44907091
H        3.40696843       0.24874594       1.28240709
H        1.74372630       5.25990248       6.74027746
H        3.37606296       3.34243059       6.22425242
Lu       0.15139489       3.30262684       0.01249705
Lu       3.35731583       0.23944687       7.48437477
16
Lattice="3.27333182 -0.05290141 -0.08963674 -0.02548361 6.20013911 -0.0357392 -1.427848 0.07034587 7.20855402" Properties=species:S:1:pos:R:3 enthalpy=-815006.650139855 pbc="T T T"
H        1.24983519       6.14842946       2.23106042
H        1.93250981       3.53569904       4.82562189
H       -0.12087260       1.37287874       0.78473884
H       -0.13587493       4.66839401       3.24712270
H        1.85663922       0.43046803       2.25197588
H       -0.08926768       1.57022615       3.92586393
H        0.01093745       1.94626306       3.29051776
H        1.33253506       3.07779313       4.84939079
H        0.05062792       2.20133292       6.40697387
H        0.03298660       4.50750686       6.38679713
H        0.02897857       5.04123779       3.87099540
H        1.67672670       0.22969871       5.84077477
H       -0.12858268       5.26623751       0.75496878
H        1.52720543       3.30144919       1.25429263
Lu       1.69967453       3.33225141       7.10639529
Lu       1.50369866       0.18848704      -0.01110460
16
Lattice="3.27288084 0.0438192 0.04891261 0.04873531 6.19871463 -0.0131006 1.49079332 0.05490689 7.54042813" Properties=species:S:1:pos:R:3 enthalpy=-815006.649538679 pbc="T T T"
H        3.37310298       5.81932375       5.23160393
H        3.40352496       2.70094019       2.33835016
H        1.40449231       4.88752482       6.73459914
H        1.35667976       1.59227504       4.07444779
H        2.74692468       0.10745427       5.23168098
H        1.55457322       4.30874089       4.04820520
H        1.37510089       4.68915760       3.43278826
H        2.83028777       3.19261695       2.32228174
H        1.52707083       4.07147943       0.76950061
H        1.50140832       1.75828990       0.77615424
H        1.51178345       1.19638452       3.46263822
H        3.16856063       6.03666644       1.30637696
H        1.38144869       1.00177087       6.74437047
H        3.03632491       2.96380743       6.24834945
Lu       3.16205502       2.93521563       0.04409550
Lu       3.04246892       6.06742818       7.51038557
16
Lattice="3.2746284 -0.01657739 0.04537823 -0.02508175 6.19707424 -0.00904118 1.57459822 0.00774701 7.30801557" Properties=species:S:1:pos:R:3 enthalpy=-815006.649501551 pbc="T T T"
H        3.67108900       0.43037911       5.02205466
H        0.46649489       3.29524380       2.27361770
H        1.70333556       1.36683143       6.51702293
H        1.67245144       4.64633381       3.96436287
H        3.08291471      -0.04280399       5.01635233
H        1.76095187       1.94500820       3.96153816
H        1.70519136       1.55843404       3.32727551
H        2.98737185       3.30041678       2.30946654
H        1.74574092       2.14486343       0.77524563
H        1.74771531       4.44819146       0.77360265
H        1.77370110       5.02894699       3.33324450
H        3.38840762       0.19240457       1.32007425
H        1.70711066       5.25389575       6.51450406
H        3.35059734       3.30267905       6.01964138
Lu       0.12041963       3.30373612      -0.00028655
Lu       3.34430935       0.20472455       7.29579961
