22
Lattice="3.42762274 -0.01236296 -0.01825798 0.02009362 5.98925464 0.00243717 0.0428065 -2.49987416 9.63278064" Properties=species:S:1:pos:R:3 enthalpy=-1632808.77469905 pbc="T T T"
N        0.75930779      -0.68994245       3.81522874
Lu       2.56274839       2.71371615       0.89623193
Lu       0.85833866       1.65733368       3.68068620
H        1.61332707       4.72844334       3.97879882
H        2.56099913       1.29854107       2.43223898
H        0.30169660       4.76943323       3.08360910
H        2.57760345       1.37861959       4.78944970
N        2.48548331       5.06176160       0.76340823
Lu       2.60499360       2.44163603       6.50571501
Lu       0.88826136      -0.56816981       7.70308952
H        0.88135624       1.08858676       6.33928619
H        0.91162627       3.22010483       7.67306274
H        3.32397706       5.62326674       0.59321126
H        2.00222775      -0.39349794       1.50148483
H        1.91735665       5.24612901      -0.06575430
H        2.60990029      -1.14484347       8.89752069
H        2.60309724       0.78486321       7.86997560
H        0.88694256       0.49333070       9.42043681
H        2.60433505      -1.34642879       6.53527939
H        0.19893160      -0.86625830       4.65120670
H        0.89087109       3.01697762       5.31087820
H        0.85340747       3.07243024       2.14497675
22
Lattice="3.43957231 0.00293367 0.00025971 -0.00368483 6.02535315 0.04179393 -0.00269946 2.46231227 9.68540676" Properties=species:S:1:pos:R:3 enthalpy=-1632808.77321413 pbc="T T T"
N        2.68996848       1.80578247       5.84667502
Lu       0.87930477       5.20788035       8.78761283
Lu       2.59994083       4.15822703       6.00479296
H        3.24888383       1.63410878       5.00838435
H        0.88373041       3.79850242       7.24145179
H        1.84844550       7.26755273       5.72272039
H        0.88021131       3.89479697       4.88189767
N        0.96595994       7.56042446       8.94465723
Lu       0.86505740       4.96263011       3.16378629
Lu       2.58624579       1.93996150       1.94106275
H        2.59021936       3.59684947       3.31918198
H        2.57288180       5.75328757       2.01234633
H        1.53245304       5.27126169       0.09378861
H        0.12803017       8.12227964       9.11602510
H        1.43542736       8.10183807       8.21331810
H        0.86416404       1.37804885       0.72992635
H        0.87031929       3.30531932       1.78621297
H        2.60079218       3.00849999       0.22414340
H        0.85544038       1.14880670       3.09281559
H        3.16182048       7.29025827       6.61634226
H        2.58083395       5.52440750       4.37525498
H        2.60197525       5.56765357       7.55027515
22
Lattice="3.43947403 0.00507832 0.00156054 -0.00665157 6.02370705 0.03420162 -0.00594909 2.47772933 9.68502646" Properties=species:S:1:pos:R:3 enthalpy=-1632808.77318069 pbc="T T T"
N        2.68639021       1.81418092       5.84764475
Lu       0.87653553       5.21948660       8.78300559
Lu       2.59909563       4.16667819       6.00222197
H        3.14581811       7.29396687       6.61360902
H        0.88355866       3.80842800       7.23908935
H        3.25030687       1.63886525       5.01394081
H        0.87979384       3.90008762       4.87938481
N        0.95405117       7.57251252       8.93679996
Lu       0.86513222       4.96648356       3.16089775
Lu       2.58834972       1.94468848       1.94159354
H        2.59093787       3.60247800       3.31768188
H        2.57249373       5.75727815       2.00867125
H        0.11073672       8.12758697       9.10338563
H        1.42243725       8.11765553       8.20733940
H        1.51810847       5.27374351       0.08901730
H        0.86695409       1.37921116       0.73019335
H        0.87145310       3.30902194       1.78395936
H        2.60182902       3.00940975       0.22147395
H        0.85781442       1.15444954       3.09403883
H        1.84002426       7.27953331       5.70873996
H        2.58061185       5.53113301       4.37221434
H        2.59982391       5.57785714       7.54636335
22
Lattice="3.41554904 -0.01907432 -0.01560431 -0.00165719 5.97584065 -0.01903664 -0.0353875 -2.54928253 9.71797231" Properties=species:S:1:pos:R:3 enthalpy=-1632808.7425384 pbc="T T T"
N        0.78606760      -0.71661551       3.86358373
Lu       2.49748353       2.70251417       0.91151909
Lu       0.76317783       1.62996973       3.68899304
H        1.21910135       4.65107291       3.14203681
H        2.46329099       1.27446619       2.43993391
H        3.31711030       4.75365788       3.99647607
H        2.47252253       1.33926223       4.81266443
N        2.48082597       5.04876354       0.73709749
Lu       2.47381039       2.38871715       6.53938894
Lu       0.74986289      -0.60386537       7.77940419
H        0.75942478       1.03437969       6.39210712
H        0.77048122       3.17078341       7.71091798
H        1.90580263       2.69668620       9.61042230
H        3.36600965       5.52539215       0.55607294
H        2.06576342      -0.31484179       1.46583617
H        2.45874496      -1.18352002       8.97748337
H        2.46438547       0.75053236       7.92793148
H        0.75260825       0.44371964       9.50660191
H        2.45277201      -1.38553350       6.60799692
H        1.31649942      -0.90615204       4.71588745
H        0.76481180       2.96667622       5.34112656
H        0.79720463       3.05629986       2.16054504
22
Lattice="3.45956293 -0.0002114 -0.00598097 0.03977753 6.08260885 0.03690842 -0.05876607 2.48919053 9.5278942" Properties=species:S:1:pos:R:3 enthalpy=-1632808.74237464 pbc="T T T"
N        2.62963366       1.80472363       5.73228442
Lu       0.89378846       5.28739540       8.65384459
Lu       2.65595783       4.16478873       5.89046085
H        0.08992479       7.42845718       5.53754569
H        0.92728848       3.83120958       7.14277580
H        2.04214309       1.58582448       4.92536072
H        0.92689310       3.91092951       4.79571818
N        0.92199982       7.64741041       8.81213722
Lu       0.93786937       5.00856931       3.09696853
Lu       2.67036990       1.95440857       1.91965203
H        2.66591220       3.64162029       3.26800927
H        2.67198918       5.81350622       1.95261890
H        1.56752585       5.37512967       0.09221478
H        0.04298165       8.10968102       9.04776379
H        1.24371348       2.18378387       8.04183305
H        0.94073181       1.39916069       0.71629319
H        0.94237671       3.32136777       1.74864068
H        2.68145646       3.05201537       0.22089230
H        0.93625176       1.14950061       3.06406046
H        2.31146328       7.26687467       6.50318241
H        2.66742208       5.56391908       4.30037174
H        2.62231343       5.62118915       7.40154151
22
Lattice="3.407143 0.00087529 0.00223732 -0.01894858 5.93729762 -0.02338346 -0.06713711 -2.57517229 9.84197116" Properties=species:S:1:pos:R:3 enthalpy=-1632808.73629528 pbc="T T T"
N        0.68631162       4.07761148       5.89561309
Lu       2.41743031       0.68731028       8.87409552
Lu       0.73854836       1.73780608       6.09429707
H        0.21663608      -1.26435626       6.59527436
H        2.44174373       2.09665384       7.33033812
H        0.19089782       4.23710403       5.01722977
H        2.44433199       2.02496147       4.94620847
N        2.45974285      -1.65287260       9.07063690
Lu       2.45733305       1.00443307       3.20272634
Lu       0.76743579       3.99026840       1.92643176
H        0.75436851       2.37166046       3.33773599
H        0.75778195       0.24489468       2.03046873
H        1.57869319      -2.15503458       9.19653279
H        3.01853819       0.75553183       0.10770528
H        2.92353543       3.68463751       8.37047032
H        2.47219941       4.56498404       0.72132287
H        2.47043955       2.62258630       1.79018550
H        0.77914981       2.97324401       0.18051692
H        2.46734821       4.74861968       3.09980216
H        1.58032591      -1.34725156       5.79087629
H        0.75298972       0.43229599       4.40832693
H        0.71456506       0.32902343       7.63851696
22
Lattice="3.41959568 -0.00654574 0.00394586 -0.04004424 5.97114838 0.01805155 0.04422946 2.59041645 9.86778658" Properties=species:S:1:pos:R:3 enthalpy=-1632808.73514438 pbc="T T T"
N        2.62209510       6.68096966       3.93829186
Lu       0.90423259       3.27619873       0.96674653
Lu       2.64696812       4.33169927       3.75496689
H        2.09955687       6.87170512       4.79485170
H        0.94085020       4.68643854       2.51544223
H        2.22223879       1.31340396       3.21707402
H        0.93855321       4.62223175       4.90267720
N        0.88646983       0.92671451       0.79670728
Lu       0.94655395       3.60333060       6.65447490
Lu       2.65322904       6.59600000       7.93479864
H        2.65414316       4.96884522       6.52619351
H        2.66070375       2.82734963       7.82513407
H       -0.02434839       0.49323102       0.63873586
H        1.24606197       6.27917936       1.52981110
H        1.39775205       0.68760311      -0.05449140
H        0.94707471       7.17405005       9.14575600
H        0.94537720       5.23149279       8.06501933
H        2.65739058       5.57617877       9.68648880
H        0.94005848       7.37047786       6.76325905
H        0.12679908       1.20342890       4.07620686
H        2.65448667       3.02796046       5.44456363
H        2.61142451       2.92450430       2.20498031
22
Lattice="3.41524182 -0.00930518 -0.00301248 0.00720766 5.92868816 0.01556164 0.07059937 2.6398115 9.98688335" Properties=species:S:1:pos:R:3 enthalpy=-1632808.73017746 pbc="T T T"
N        2.62301562       6.64767943       3.98996516
Lu       0.92854552       3.27747544       0.99447476
Lu       2.66029485       4.30633458       3.77997391
H        2.17036825       6.80758556       4.89126326
H        0.95342999       4.66900800       2.55546067
H        2.09745994       1.31583520       3.32059094
H        0.95517273       4.60923497       4.94957176
N        0.96868589       0.93626505       0.78557201
Lu       0.96281039       3.62743073       6.72336279
Lu       2.69619802       6.59735038       8.04050000
H        2.67631242       4.99201240       6.60917722
H        2.67117152       2.86391599       7.89604668
H        1.49835771       3.41523740       9.87465986
H        0.08736881       0.42532965       0.69584812
H        1.49107221       6.27129563       1.46004159
H        0.99168116       7.18167192       9.25232910
H        0.98265933       5.23318414       8.15316964
H        2.70418549       5.61507051       9.81281181
H        0.98781586       7.36115025       6.86645535
H        0.08369035       1.23693518       4.06207841
H        2.66725152       3.04334023       5.51037864
H        2.63541566       2.91497717       2.21959846
22
Lattice="3.41432786 0.00119632 -0.00181359 0.00681581 5.86301351 -0.00528167 0.05194375 -2.65087745 10.00403574" Properties=species:S:1:pos:R:3 enthalpy=-1632808.72583609 pbc="T T T"
N        0.86277321       3.95090539       6.02498688
Lu       2.54465532       0.60602463       9.00996259
Lu       0.82025465       1.61879193       6.22653589
H        1.25958400       4.10402604       5.09659525
H        2.52673081       1.97920400       7.44170700
H        1.42797733      -1.32664255       6.64983829
H        2.52623320       1.93100612       5.05742376
N        2.50616084      -1.72573514       9.20652970
Lu       2.51774341       0.96728591       3.27738953
Lu       0.79454250       3.91297987       1.95257379
H        0.80853378       2.33042998       3.39342913
H        0.80902182       0.22874374       2.09984618
H        3.38833157      -2.24352035       9.24719155
H        1.96219760       3.55493938       8.56033038
H        2.03645343       0.75816376       0.11915374
H        2.50037011       4.50049759       0.74940775
H        2.50381446       2.55061746       1.83656354
H        0.78663450       2.94659741       0.17470623
H        2.50313905       4.65182753       3.12932758
H        3.39186338      -1.38513661       6.00490594
H        0.81185759       0.37953631       4.47999803
H        0.83778124       0.24664585       7.79508638
22
Lattice="6.14112209 -0.05532592 -2.37e-05 2.16626405 8.99940179 2.052e-05 1.071e-05 7.147e-05 3.47889873" Properties=species:S:1:pos:R:3 enthalpy=-1632808.60621188 pbc="T T T"
N        6.66906917       3.54315545       2.64873783
Lu       3.31540858       0.67510672       0.96904868
Lu       4.28153053       3.55720519       2.70820210
H        6.92990517       4.19662149       1.90546966
H        4.74662676       2.25464019       0.96326400
H        1.09069914       2.76573752       2.45811664
H        3.48383765       4.19024449       0.96931940
N        0.92788519       0.68931625       0.90933409
Lu       3.32274772       6.22666577       0.97469507
Lu       6.44024141       7.00507641       2.71391784
H        4.71838381       5.74630309       2.71077011
H        2.50430030       7.34202392       2.71783410
H        0.66692410       0.03578118       0.16612583
H        6.50632319       1.46676535       0.71865530
H        0.46155083       0.27659445       1.71670869
H        6.99604964       8.12886147       0.97464881
H        5.04498191       7.48561654       0.97124027
H        4.11308427       0.04218913       2.70884637
H        7.25895668       5.88985196       0.97827198
H        7.13546024       3.95603258       3.45604209
H        2.76721124       5.10302337       2.71421070
H        2.85031513       1.97784350       2.70284620
