29
Lattice="6.18206813 0.00300544 -0.0094161 1.03452921 6.17345434 -0.00011218 2.019975 0.78925211 7.79380758" Properties=species:S:1:pos:R:3 enthalpy=-3669803.62155516 pbc="T T T"
H        6.46452298       4.98537108       4.63099720
H        2.34488053       2.12994713       3.81277290
H        2.22709944       1.27658418       7.40222960
H        4.96158724       3.15059700       4.09279641
H        5.36042974       2.68743246       1.96584383
H        6.37746384       2.76801399       7.70517405
H        5.37078155       1.70393458       5.60624014
H        7.13916299       3.50086697       2.96895025
H        3.30549047       4.11687530       2.58924813
H        1.18085973       1.38411541       1.70379435
H        4.17560885       5.19232468       4.54687076
H        2.30245263       3.12377943       0.40673366
H        8.44716341       6.45443737       5.09130622
H        6.49065353       4.57776706       0.78442167
H        7.59012417       4.59817115       6.45534129
H        7.51840837       5.74548755       2.93693894
H        3.35003299       3.18993578       6.00028943
H        4.43168490       0.85921383       3.55629497
Lu       5.44358651       4.83357942       2.79517434
Lu       6.41424863       1.64594597       3.68726689
Lu       3.28963767       1.01454476       5.44833607
Lu       2.21167601       4.33484315       4.44895965
Lu       5.42048138       3.92104643       6.13037722
Lu       2.46357058       5.39385477       0.98105580
Lu       6.42662073       2.54030761       0.07049738
Lu       3.35375363       1.95557879       1.89652750
Lu       7.27266024       6.67937396       7.18087779
N        5.27504911       5.91114461       6.82804714
N        4.45115976       6.12670628       1.37707560
29
Lattice="6.18823268 0.00064781 -0.00365042 1.05013834 6.17320335 -0.00579238 2.04345901 0.71197192 7.78468213" Properties=species:S:1:pos:R:3 enthalpy=-3669803.60094539 pbc="T T T"
H        6.41625727       3.82863942       4.38046276
H        2.28245658       1.02361478       3.53485919
H        2.28062139       1.31185912       7.38368384
H        3.82350162       2.84291489       4.05476669
H        5.41392818       2.80226023       2.13667754
H        6.42977027       2.85069234       7.77157928
H        5.41162227       1.83351358       5.55196742
H        1.58337019       3.16864754       2.90295982
H        3.40674282       4.30992137       2.51034185
H        1.13915379       1.40559459       1.65575740
H        4.31405216       5.13159208       4.59651010
H        2.32442599       3.26329858       0.46996783
H        8.44782525       6.43805136       5.18084244
H        6.53214142       4.68827196       0.79737592
H        7.61256395       4.62806909       6.44364061
H        7.53127338       5.68048412       3.02196908
H        3.38310673       3.24583494       6.12651576
H        4.58802181       0.77153860       3.62556849
Lu       5.43265016       5.00781509       2.69625438
Lu       6.54640224       1.66924884       3.71588537
Lu       3.32494421       1.11522144       5.37353789
Lu       2.35003050       4.33300712       4.47516658
Lu       5.44097261       3.96421685       6.24758831
Lu       2.53152796       5.54168523       0.93612869
Lu       6.43451437       2.64683750       0.12328495
Lu       3.29002978       2.10180532       2.04861857
Lu       7.36598623       6.76909713       7.13383789
N        5.38326885       5.98725529       6.75438048
N        4.53208482       6.28459871       1.32676873
29
Lattice="6.18611353 -0.00174144 -0.00239247 1.09261653 6.0163675 -0.0031794 1.03465929 1.97961672 7.72581077" Properties=species:S:1:pos:R:3 enthalpy=-3669803.59913059 pbc="T T T"
H        1.95053769       1.82605681       5.53001751
H        5.36406465       5.30525515       2.50692979
H        4.15562500       2.37718898       4.14780346
H        6.17687610       3.21616160       2.87279967
H        3.17708022       1.77471949       2.01062078
H        7.20273620       3.96465802       4.91066506
H        6.12274153       6.17952905       4.64697971
H        5.22118411       3.33136310       6.30323488
H        3.28349735       4.53873194       3.86749419
H        3.56256187       2.00817504       6.86117808
H        6.99191964       5.91862106       0.94000749
H        4.22914621       4.22678628       0.25120900
H        5.74621607       1.08507923       2.86918996
H        4.18033763       5.61597935       5.82024328
H        1.99530955       3.63568583       1.67150561
H        7.16831816       7.13737092       6.69731726
H        5.05212678       2.17255759       0.79175520
H        2.12623012       6.22813578       4.48208250
Lu       3.09614065       3.62590687       5.65539780
Lu       6.20141191       2.02481732       4.70346469
Lu       1.18678415       5.06146200       3.00857548
Lu       4.09029948       6.51582138       3.81525122
Lu       4.06111954       3.60506701       2.24411194
Lu       3.13246531       6.66768689       7.50835700
Lu       3.89159147       0.28732744       0.62610345
Lu       6.35293062       5.13661147       6.55680440
Lu       1.00172951       1.83320886       1.47610448
N        3.06967339       5.78386686       1.79802860
N        2.14430690       4.68017821       7.21936625
29
Lattice="6.11485159 -0.00194626 -0.00440412 1.10650592 6.0852242 -0.00195113 2.13699968 0.66193391 7.72870617" Properties=species:S:1:pos:R:3 enthalpy=-3669803.59880149 pbc="T T T"
H        7.24363087       4.96965669       2.45250535
H        7.29393704       1.10064809       5.11525444
H        6.30773114       2.89782810       3.83727526
H        5.12038231       1.05985424       5.11236596
H        7.07700327       3.75147582       5.97591050
H        5.30541582       6.27004680       3.07254193
H        2.21433938       1.64257184       3.33883455
H        5.17680248       2.02085217       1.68139668
H        1.08392940       0.78748663       1.28765060
H        6.77787422       3.41358060       1.12560820
H        3.21039082       2.23302060       5.47977857
H        2.34175114       2.49526875       0.00750317
H        4.33617682       4.13902549       4.11818454
H        3.11538856       3.45361201       2.16561205
H        5.45744001       5.24821163       6.31586037
H        2.31728393       0.74170659       7.04702803
H        6.35048790       1.97865882       7.19485569
H        2.88211393       5.58199627       3.50489963
Lu       5.26808627       4.16388167       2.33010614
Lu       6.28735666       0.82210699       3.28175885
Lu       4.19935331       6.29776594       4.97854215
Lu       2.24710291       3.70180688       4.17196207
Lu       5.11761814       3.20997896       5.74242668
Lu       2.26807557       4.67353936       0.47670255
Lu       8.41347010       2.78385824       7.36097726
Lu       3.19798416       1.23074583       1.42766176
Lu       7.40879328       5.90238328       6.50999415
N        3.15176491       4.57525079       6.18972325
N        4.40148324       5.28811078       0.76518877
29
Lattice="6.18520658 0.02495181 -0.04432535 1.07044345 6.01817411 0.04809043 1.08091511 1.91427899 7.74190967" Properties=species:S:1:pos:R:3 enthalpy=-3669803.59834143 pbc="T T T"
H        2.15614486       1.72095524       5.27310375
H        5.93789151       1.02072807       2.57804953
H        4.35052075       2.29224023       3.87927225
H        6.35861028       3.15208389       2.59886639
H        3.35971153       1.70501921       1.74159372
H        1.21138305       3.86157404       4.68172145
H        6.30729854       6.09711870       4.40173967
H        5.42661607       3.23201549       6.03698931
H        7.36118362       7.04065759       6.45598679
H        3.78014677       1.89343503       6.59015102
H        5.53617652       5.24075454       2.25736958
H        5.46890693       6.08917458       7.73968015
H        3.47574697       4.45241577       3.62657756
H        4.37460684       5.51640163       5.58355943
H        2.16737474       3.56458163       1.42737975
H        7.14992941       5.87421997       0.68475503
H        5.22363663       2.12168998       0.51318917
H        2.31065652       6.12892108       4.26398339
Lu       3.29658397       3.52345398       5.40591827
Lu       6.40143461       1.94440105       4.41777127
Lu       1.36379547       4.97279401       2.78536480
Lu       4.26818003       6.43328190       3.58659592
Lu       4.23763227       3.53647748       1.98585039
Lu       3.33400089       6.54669776       7.28979756
Lu       4.06805214       0.23402179       0.33669639
Lu       6.55324265       5.03894623       6.30189410
Lu       1.18001614       1.76038910       1.22209898
N        3.23492094       5.71416446       1.56877356
N        2.35239796       4.55753078       6.98764632
29
Lattice="6.231555 0.00566286 0.00661742 1.22290654 5.928429 -9.437e-05 1.08969795 2.00167726 7.72820141" Properties=species:S:1:pos:R:3 enthalpy=-3669803.56607242 pbc="T T T"
H        5.85696864       3.15992031       2.75298962
H        2.83297378       4.65300789       3.68729251
H        3.83680486       2.45930196       3.93833271
H        5.16850521       4.27720858       0.61327669
H        0.57389865       0.93897040       3.36137807
H        1.61791485       1.81423071       5.33550526
H        6.00167559       6.23010623       4.47031425
H        4.90175822       3.43412323       6.21314085
H        3.90338739       5.55416402       5.58118247
H        2.83542427       1.79157496       1.91502795
H        5.12041070       5.40274895       2.46056114
H        3.27653575       3.25124289       0.03127938
H        6.78337705       5.90648464       0.93375204
H        4.75683321       7.58597883       6.48808306
H        1.58472894       3.63868313       1.53095719
H        7.08179368       7.20287333       6.57089622
H        4.81143749       2.12587201       0.73005526
H        6.91915177       4.02916045       4.78894058
Lu       2.77198817       3.67163827       5.46413379
Lu       5.85136272       2.18210196       4.64601592
Lu       7.11379913       5.03291820       2.88605091
Lu       3.87694263       6.51770552       3.66212192
Lu       3.78856816       3.60675477       2.01531208
Lu       2.88717100       6.61584553       7.32640412
Lu       3.59744509       0.37268396       0.46234058
Lu       6.04983839       5.25577932       6.49086827
Lu       0.62580185       1.80984173       1.32278332
N        2.89345840       5.68253438       1.42314414
N        1.82926317       4.62434027       7.06737069
29
Lattice="6.12515585 0.00559034 0.00550929 -1.06792359 6.12758887 -0.00022854 -2.11212815 0.77095293 7.67748537" Properties=species:S:1:pos:R:3 enthalpy=-3669803.55938234 pbc="T T T"
H        1.86377184       5.11178175       2.53779511
H        0.93283451       2.92569158       3.79573392
H        3.08052838       3.30240091       3.83289446
H       -1.01238047       3.70100023       7.62307456
H       -0.28732497       0.63227247       4.24133844
H        3.94496498       1.24566476       5.20196508
H       -1.03228481       4.55031962       4.29522600
H        1.93328152       4.13365710       5.95533328
H       -0.25915703       2.72109407       5.56676359
H       -0.12738403       3.96756852       2.11497905
H        4.00532228       5.25551882       2.58529636
H        3.80505587       2.38622624       1.69933010
H       -1.01912942       5.43968992       0.61947267
H        3.09324952       2.36424936       6.97315448
H        2.17918814       0.89185315       1.35079949
H       -2.19994486       5.37871502       6.35426267
H        3.06145479       4.13837400       0.50515110
H        0.96437565       5.98174609       4.60524700
Lu       1.91852083       1.97689019       5.34951055
Lu       3.03965092       5.38851371       4.38854566
Lu      -0.17003563       5.94342922       2.68919013
Lu      -1.06430803       2.47224922       3.52935013
Lu       1.83158153       2.92571544       1.96464473
Lu      -1.01834965       1.53845287       7.18598701
Lu       5.11093174       3.35960679       0.33311655
Lu      -0.08197074       4.93444992       6.22392465
Lu       4.13785533       0.28614034       1.10792702
N       -0.07095577       1.59100127       1.66408731
N        1.00125709       0.79765319       6.85854743
29
Lattice="6.26193024 -0.00115794 -0.00116681 1.02843784 6.08895589 -0.01041008 1.05547216 1.85163573 7.77959104" Properties=species:S:1:pos:R:3 enthalpy=-3669803.48786538 pbc="T T T"
H        2.46216067       2.49308450       3.19293499
H        5.93201394       6.04377636       4.05902462
H        6.73187936       6.06477478       0.46476016
H        4.43830546       1.34118962       2.47696272
H        4.81160260       3.20484374       5.77173240
H        4.62481844       2.18465733       0.13686959
H        5.78640512       3.03783500       2.23533176
H        3.75735539       1.55232700       4.93661668
H        3.72911686       5.46606177       5.25105005
H        6.81381615       7.09978701       6.11171372
H        2.60272201       4.75657744       3.27226846
H        4.87181895       6.25758529       7.38814944
H        0.59912721       0.76345292       2.70840634
H        2.73111158       2.39172487       7.02504398
H        2.56734257       1.29459136       1.33493019
H        1.46788730       1.56371022       4.86910099
H        4.67489295       5.25700335       1.77955813
H        6.83819491       3.76232690       4.27440395
Lu       2.69291588       3.50130701       5.02703072
Lu       5.70862754       1.95819149       4.13706669
Lu       6.79954507       4.90555379       2.42283920
Lu       3.76108018       6.55101906       3.39617876
Lu       3.62640816       3.33245041       1.67902319
Lu       2.59987184       6.50453684       6.84386198
Lu       4.74638038       2.10472950       7.65563511
Lu       5.84431942       5.01970627       5.87972378
Lu       0.63907742       1.98058879       0.61778682
N        1.67396278       3.83233251       1.01682442
N        1.56770836       4.66444914       6.44409243
29
Lattice="6.13601729 -0.00530434 -0.01127627 0.98870497 6.09867427 -0.01297992 1.01237216 2.0341742 7.70553698" Properties=species:S:1:pos:R:3 enthalpy=-3669803.46782615 pbc="T T T"
H        2.00052447       1.77326459       5.18682214
H        0.93871348       1.01552763       3.08436341
H        4.06165089       2.33937205       3.87153886
H        6.18309877       3.06302065       2.54665618
H        3.16123189       1.74918139       1.66733546
H        7.09230065       3.96668883       4.63943170
H        6.16394070       6.27801589       4.25955714
H        5.12366474       3.35572303       6.04404774
H        7.03411517       7.27656849       6.40511014
H        3.17011739       2.58426498       7.08889008
H        5.72583852       4.69654045       1.30727410
H        5.10659163       6.30685740       7.56716421
H        4.70738822       4.47172227       3.80224544
H        4.16201389       5.74818472       5.57259480
H        1.99027255       3.62434571       1.38468885
H        7.05786808       6.14883115       0.65719711
H        5.01281637       2.19381883       0.46812240
H        2.45101099       5.44090585       4.26589766
Lu       3.07562133       3.78457690       5.34130444
Lu       6.10665655       2.12727900       4.41253961
Lu       1.18256656       5.07414653       2.69688140
Lu       3.99801767       6.58156085       3.56303791
Lu       4.10012724       3.56917119       1.94177592
Lu       3.09788147       6.76658390       7.22498185
Lu       3.98452179       0.23814996       0.37504027
Lu       6.26777818       5.24009168       6.21087023
Lu       1.11039802       1.75550045       1.08441732
N        3.20663093       5.64682930       1.67316733
N        2.07544898       4.88301233       6.88996732
29
Lattice="6.23612946 0.00012656 -0.00021836 1.03481987 6.07514582 -0.00082224 1.07468768 1.90159829 7.7457285" Properties=species:S:1:pos:R:3 enthalpy=-3669803.44793188 pbc="T T T"
H        1.53121197       1.77920371       4.77408069
H        5.87160084       6.29871432       4.13294978
H        6.68681147       6.15504359       0.47170369
H        4.70306504       4.39288052       3.79258538
H        4.72591948       3.32918746       5.77694914
H        4.54774985       2.30879104       0.14815445
H        5.73782523       3.17239332       2.25311551
H        4.61602587       1.16533603       2.28366455
H        3.64914769       5.62363493       5.30009729
H        6.80929779       7.28963801       6.11173624
H        2.55786758       4.82414051       3.28346541
H        4.82426559       6.42360693       7.40685396
H        0.61455338       0.87483018       2.79197238
H        2.68106208       2.59501742       7.07968521
H        2.53841903       1.47001681       1.44451376
H        3.50155504       2.46286841       3.56353831
H        4.60516384       5.35481348       1.74067643
H        6.82437885       3.93030040       4.27956030
Lu       2.64764868       3.68986578       5.11483150
Lu       5.64077867       2.14589744       4.12932796
Lu       6.71908644       5.09507349       2.44425457
Lu       3.77050221       6.59915218       3.40627065
Lu       3.57915853       3.47956757       1.67639722
Lu       2.59997125       6.67168198       6.85844026
Lu       4.69674802       2.27921388       7.62467527
Lu       5.76916510       5.23348165       5.89209131
Lu       0.55085242       2.10244414       0.69400959
N        1.63325733       3.93516244       1.09008019
N        1.50214814       4.84363088       6.48769400
29
Lattice="6.21680121 0.00148247 -5.07e-05 1.09287516 6.14124571 0.00022507 2.15861612 0.75936086 7.7210266" Properties=species:S:1:pos:R:3 enthalpy=-3669803.43240438 pbc="T T T"
H        6.50070039       3.84071795       4.19339798
H        2.35727698       2.31104204       3.69107435
H        2.36471297       1.39948892       7.28003859
H        7.64018096       2.66867998       5.58271817
H        5.65225035       1.11584863       1.60623192
H        6.53810573       2.89464684       7.66863142
H        5.42870872       1.87085976       5.50156620
H        5.46804819       3.05363857       2.10706043
H        3.36756827       4.23369495       2.57502017
H        1.36090762       1.59921501       1.71138338
H        4.34696436       5.19419462       4.53893562
H        2.31934741       3.24288761       0.40583822
H        8.61594750       6.50722553       5.04589778
H        6.52197185       4.72777961       0.73955513
H        7.70126732       4.69498975       6.40959950
H        7.59322527       5.69985369       3.07575724
H        3.50372739       3.30762845       6.01666240
H        4.47033123       0.96205956       3.55255041
Lu       5.47190665       5.04259118       2.70560067
Lu       6.46905301       1.72152822       3.57376253
Lu       3.34328600       1.17566853       5.36861562
Lu       2.36291877       4.33341977       4.43953466
Lu       5.55888190       3.99244201       6.12894955
Lu       2.42879892       5.55396590       0.97721601
Lu       6.45189069       2.62618961       0.26898771
Lu       3.43723672       2.11938431       1.89041673
Lu       7.40754366       6.73894252       7.09732887
N        5.41561153       6.00403662       6.71579360
N        4.40812313       6.21719264       1.32735401
29
Lattice="6.2021657 -0.01049422 -0.00952373 1.02182784 6.05808328 -0.01026421 1.01587847 2.01404136 7.69407969" Properties=species:S:1:pos:R:3 enthalpy=-3669803.43018096 pbc="T T T"
H        2.03150024       1.74028523       5.14779081
H        0.90364255       1.00046874       3.01683074
H        4.15307083       2.25161003       3.83102984
H        6.26068894       3.09279738       2.47523205
H        3.24070374       1.68860287       1.66853014
H        7.20322764       3.91142418       4.60847804
H        6.26791321       6.18785131       4.22907490
H        5.18197858       3.30646669       5.99489149
H        7.12870093       7.20681652       6.34943498
H        3.21704088       2.53595488       7.03105098
H        5.50952026       5.28582945       2.05367084
H        5.29782326       6.28573541       7.59323571
H        4.62657901       4.35669697       3.85384112
H        4.23630237       5.69339791       5.56499771
H        2.07006060       3.54886790       1.35580125
H        7.10994698       5.99207014       0.66197929
H        5.09035189       2.14137664       0.46608795
H        2.49591980       5.44110117       4.24597581
Lu       3.11039002       3.72540075       5.31103190
Lu       6.20343343       2.09849211       4.39482945
Lu       1.25189215       5.03611345       2.66587897
Lu       4.11647817       6.46194044       3.49593639
Lu       4.15734365       3.53257679       1.92879887
Lu       3.17703155       6.68407483       7.19651594
Lu       4.02393696       0.23023048       0.32865628
Lu       6.34550784       5.17161478       6.19463647
Lu       1.17220828       1.72389287       1.05241858
N        3.18421749       5.59822980       1.60540975
N        2.08771127       4.83616650       6.85114603
29
Lattice="6.22703441 0.00222432 -0.00546549 1.00693198 6.08993855 -0.0127795 1.06439651 1.90062205 7.81494332" Properties=species:S:1:pos:R:3 enthalpy=-3669803.39603924 pbc="T T T"
H        1.63360710       2.44923961       3.10930468
H        5.74238395       6.21958085       3.87533029
H        6.74722158       6.15763785       0.26785256
H        3.82050414       2.33543629       3.40451666
H        4.74586036       3.18923010       5.58933446
H        5.57887585       4.07959622       7.72852214
H        5.72168260       3.02716317       2.14385073
H        4.67266351       6.38359531       7.14429081
H        3.72192617       5.46775958       5.06635320
H        6.75147124       7.15705667       5.94989558
H        2.63804791       4.70184519       3.09980799
H        5.42623492       4.34510447       0.30385481
H        0.56929317       0.66680227       2.59648393
H        2.75707987       2.46947694       6.94245336
H        2.63145019       1.37176108       1.23949724
H        1.59366891       1.57746262       4.87357999
H        4.53965255       5.39978314       1.77858903
H        6.66087467       3.94752424       4.17897481
Lu       2.59325799       3.52952338       4.87587862
Lu       5.81656600       2.01756344       3.96372179
Lu       6.74704155       4.94157530       2.18672287
Lu       3.65526099       6.62538099       3.22828913
Lu       3.66466729       3.43306283       1.46328844
Lu       2.57753675       6.55499155       6.71892481
Lu       4.74045174       2.07198025       7.60749253
Lu       5.82276908       5.13859795       5.79290199
Lu       0.61152294       1.99006696       0.51035943
N        1.69882600       3.82677839       0.85249498
N        1.57757429       4.67051173       6.32269677
29
Lattice="6.20876023 0.00069825 -0.00154664 1.10631057 6.14579282 -0.00106103 2.17042826 0.77878131 7.73321785" Properties=species:S:1:pos:R:3 enthalpy=-3669803.37532896 pbc="T T T"
H        7.44262206       5.48570633       3.12350610
H        2.12934555       2.11227474       3.82974226
H        2.22694636       1.21935585       7.30454833
H        4.26888753       2.84077807       4.08028937
H        5.32326736       2.86387495       2.08938577
H        6.41674906       2.67567398       7.70953523
H        5.37620291       1.62411757       5.59587092
H        6.46624959       3.57058758       4.33579140
H        3.20413384       4.07720861       2.56849445
H        1.22487353       1.37577800       1.77817190
H        4.24831673       5.02964356       4.62375227
H        2.18172783       3.00404191       0.46926596
H        8.50098771       6.34337645       5.10235821
H        6.39240059       4.50869471       0.79844117
H        7.55243390       4.41464593       6.43514858
H        4.32185692       0.66932791       3.60205964
H        3.27662009       3.07594833       6.10504275
H        5.50839026       0.90928687       1.66817411
Lu       5.30755888       4.81444675       2.75795222
Lu       6.30205100       1.50827909       3.62519069
Lu       3.26436443       0.96108166       5.42068594
Lu       2.29538947       4.16588071       4.46210450
Lu       5.38442758       3.79120457       6.19608585
Lu       2.30960304       5.35848354       1.03368134
Lu       6.29877286       2.40850543       0.31229811
Lu       3.30063544       1.89756866       1.97647049
Lu       7.31222848       6.53147887       7.16818656
N        5.30384876       5.79348499       6.79408027
N        4.30254579       6.01926558       1.36937245
29
Lattice="6.20155643 0.00101479 -0.0032285 1.04519316 6.16415687 0.00102613 2.02814573 0.71600466 7.75627481" Properties=species:S:1:pos:R:3 enthalpy=-3669803.37529057 pbc="T T T"
H        6.40204190       3.78999386       4.29264270
H        7.81531799       2.42081941       5.20480000
H        2.29865636       1.28925098       7.27318828
H        3.78814712       2.77911169       3.98639464
H        5.44242052       2.75276531       2.09009976
H        6.48604395       2.74457158       7.62367436
H        5.46927033       1.76837036       5.48333652
H        1.56787948       3.12260250       2.76354191
H        3.41426748       4.27551627       2.45854419
H        1.17666549       1.33104025       1.64019705
H        4.33647185       5.05591413       4.55310810
H        2.35855195       3.20616998       0.41634212
H        2.36072100       6.36975977       5.01627419
H        6.55385388       4.65246354       0.72556407
H        7.61732120       4.54562103       6.35328721
H        7.51278680       5.62816076       2.97137126
H        3.42571861       3.23079668       6.08470178
H        4.56228947       0.75456635       3.53868230
Lu       5.42656100       4.95945522       2.66300908
Lu       6.57446363       1.61642285       3.64545556
Lu       3.34954502       1.06686148       5.29862587
Lu       2.35857802       4.26610582       4.37242287
Lu       5.42098336       3.92152774       6.17643559
Lu       2.56281045       5.49750283       0.90778619
Lu       6.48109982       2.61091388       0.12637100
Lu       3.35213411       2.07016684       1.97204001
Lu       7.37596889       6.65562885       7.08247067
N        5.39188835       5.93277876       6.69534596
N        4.56463643       6.25641906       1.25939438
29
Lattice="6.21202121 0.0006971 -0.00150599 1.01996244 6.08399849 -0.00986708 1.12545576 1.86788234 7.80190587" Properties=species:S:1:pos:R:3 enthalpy=-3669803.35685557 pbc="T T T"
H        1.66638103       1.65421398       4.96530772
H        5.87383208       6.28847218       4.02796393
H        6.74237475       6.16315223       0.45983405
H        4.78655167       4.17279456       3.77715438
H        4.83779975       3.24047313       5.79266978
H        4.58418465       2.28911253       0.12011456
H        5.79219575       3.06777447       2.19993736
H        3.89971019       2.23518884       3.59342631
H        3.77432968       5.56992126       5.25889097
H        6.87180427       7.20135823       6.11274444
H        2.63977695       4.79985523       3.26162694
H        4.96403366       6.36624171       7.41250439
H        0.65054693       0.77720394       2.74598067
H        2.82943571       2.51418232       7.07430682
H        2.67428721       1.42258422       1.39475136
H        1.94829636       2.55572404       3.18014648
H        4.70192833       5.37581141       1.77673990
H        6.88385504       3.95584484       4.33256028
Lu       2.73097936       3.60602503       5.03082404
Lu       5.83589668       2.12398880       4.12488207
Lu       6.79734978       5.00781537       2.41025911
Lu       3.75892609       6.65459787       3.38311582
Lu       3.61742895       3.42175381       1.74585928
Lu       2.72023008       6.60299128       6.84745199
Lu       4.82989991       2.19634039       7.68620068
Lu       5.89182909       5.16644938       5.88862057
Lu       0.64702441       2.06038585       0.64166230
N        1.71877238       3.92703608       0.99494610
N        1.65004730       4.75214225       6.47499352
29
Lattice="6.17360103 0.01142036 -0.01062487 1.02581606 6.13848292 -0.0122766 2.02157329 0.77999553 7.79030543" Properties=species:S:1:pos:R:3 enthalpy=-3669803.29692571 pbc="T T T"
H        6.52827022       5.50059736       4.60377609
H        2.24315430       2.13127336       3.86740097
H        2.14247075       1.25248438       7.38945511
H        6.25365405       3.42838518       4.36114733
H        5.27250022       2.67002816       2.09760608
H        6.32359703       2.74429650       7.72573995
H        5.29953328       1.72666742       5.57130562
H        7.32558126       3.45600211       2.51300771
H        3.32076258       4.08443425       2.61118243
H        1.11204661       1.28787776       1.70008179
H        4.18280441       4.99309198       4.56127770
H        2.24905342       3.04722367       0.36586924
H        8.46981701       6.38325722       5.08015628
H        6.38729799       4.56633719       0.71532297
H        7.48313097       4.49837957       6.42305850
H        7.45950272       5.66757503       2.83100978
H        3.24717935       3.13238457       6.00765591
H        4.31706802       0.88799778       3.50685754
Lu       5.41539648       4.84359873       2.76720328
Lu       6.34768196       1.50142124       3.69861999
Lu       3.24810366       0.97037621       5.42800621
Lu       2.10817438       4.28428313       4.39736726
Lu       5.33681284       3.87433763       6.16541792
Lu       2.39846397       5.32018472       1.00669870
Lu       6.35871492       2.51827008       0.15365518
Lu       3.23239158       1.94886238       1.94034479
Lu       7.20000012       6.60093844       7.16934055
N        5.18377854       5.86250070       6.83776013
N        4.38853240       6.07822198       1.35408007
