29
Lattice="6.10248958 0.00060649 0.00148498 -0.97905403 6.10919386 -0.0040581 -3.13338925 -2.54051997 8.45525308" Properties=species:S:1:pos:R:3 enthalpy=-4075700.71478605 pbc="T T T"
H        3.49469997       0.49879499       3.11574026
Lu       0.39373583       3.15790523       2.04966529
H       -0.60089653       5.02355837       2.28350017
Lu       3.52764887       4.76322734       2.95594120
H        4.42743757       2.79047703       2.76054254
H        1.48004861       4.25247707       3.61622299
Lu      -1.80502321       1.76505296       4.67671124
H        1.46530564       1.26665464       1.97718808
Lu       1.47447694       0.04483747       3.80281785
H       -0.62314634      -0.10323029       4.48619082
H       -0.69078304      -2.20195880       8.26402962
H        5.50932196       1.92994179       0.63752265
Lu       1.45236424       3.39582388       5.62171668
H        1.33239250      -0.86679920       5.74069000
H       -2.62438101       3.77260314       4.88325475
H        0.34131560       0.10384726       7.79511849
Lu      -0.65443713      -1.21758944       6.37679599
Lu       0.41300467       0.03018201       0.47730911
H        0.40995021       4.19361914       0.22173723
H       -1.61049760       0.74408587       6.58777292
H        3.50701538       5.76660576       1.06849481
H        2.46841794       3.46705782       1.53030068
Lu      -0.67476166       2.00948102       8.11817718
Lu       3.49442815       1.55147178       1.23223752
H        1.36021788       2.36696241       7.51158161
H       -2.68772959      -1.45295071       7.01115051
H       -0.63707820       2.94215432       6.14830809
Lu       2.37281137       0.47095008       7.12476051
N        2.21960598       1.48650943       5.15570132
29
Lattice="6.15716254 0.01131513 0.01759624 1.06456083 5.99924171 -0.00505262 3.14411822 2.54517176 8.54114688" Properties=species:S:1:pos:R:3 enthalpy=-4075700.65811016 pbc="T T T"
H        5.89221406       8.03035799       7.09747397
Lu       8.96943242       5.47978899       6.02424749
H        5.83085735       2.87199758       5.06979895
Lu       5.84825743       6.99311185       5.22506562
H        6.90501081       2.70386886       8.39764217
H        7.88870542       6.65857121       4.51815222
Lu       4.95437160       4.07408015       3.46635720
H        4.87612150       5.08680514       5.40363964
Lu       7.89778097       2.57220598       4.45353684
H        5.79876488       0.84089652       1.20094122
H        5.88141878       6.03805510       3.26906087
H        2.72315132       2.41978950       0.33019453
Lu       7.90098667       5.48369545       2.63522046
H        7.92530732       3.60218456       6.30714937
H        3.81880738       2.21567964       3.66035746
H        3.80607403       5.20211625       1.97034386
Lu       3.76245440       1.13007646       1.73848562
Lu       8.95682471       2.38640556       7.78313219
H        3.87079157       7.32038139       5.88282998
H        2.85945331       4.42252027       4.17257558
H        4.70595479       3.04805735       1.52428498
H        6.91011814       5.79169234       6.65822186
Lu       3.79449334       4.29514750       0.00466924
Lu       5.86827847       3.91632132       6.94404674
H        8.95459141       6.51022920       7.92028775
H        3.81880932       4.23207185       7.46630482
H        1.75859360       4.63136244       0.61850582
Lu       6.78421068       2.78993627       0.84766333
N        7.00099819       3.53639638       2.80997490
29
Lattice="6.17834118 -0.00043352 -0.00053161 -0.99674533 6.05256758 0.00054572 -2.16098919 -3.40676361 8.43924369" Properties=species:S:1:pos:R:3 enthalpy=-4075700.55184171 pbc="T T T"
H       -1.79693316       2.15960362       5.98145838
Lu       0.23571475       1.48013906       6.23234695
H       -0.79841052       0.23212173       4.73545838
Lu      -0.78421035      -1.84418274       5.38940087
H        2.45210389       3.73387681       1.75690582
H        1.26854535       1.68843137       4.37677675
Lu       1.32200290       3.81386936       3.66290392
H        0.27900916       3.56430533       5.56315472
Lu       3.32301662       0.90873534       4.47091223
H        4.47792712       1.13655703       2.60574797
H        0.39583669       2.50602021       2.17952257
H        3.41037745       1.91701520       0.54122452
Lu       0.30846596       0.40346836       2.91549306
H        4.57012856       5.19831077       1.36680496
H        3.37231439       3.01453037       3.84409160
H        2.29895036       0.77188732       6.40123900
Lu       4.49550406       3.12690243       1.94971549
Lu       3.32140169       1.96289700       7.82063291
H        5.54197793       3.33002424       0.09844505
H       -0.80330399       4.36205409       3.48816715
H       -1.83357722      -2.00097923       7.23950444
H        3.35796037      -1.14724022       5.19482916
Lu       1.38974650       2.64477650       0.21709408
Lu       2.30555898      -1.30645048       7.07334664
H        0.27037404      -0.61216342       6.79725891
H       -0.80252805       1.28701990       8.15297740
H        1.32619044       2.68055813       7.61549085
Lu       3.52979820      -0.16968818       1.16108737
N        2.31879504      -0.20606228       2.87503297
29
Lattice="6.16632642 0.00508696 0.00096454 -1.10115525 6.04213434 -0.01331738 -2.005218 -3.46737036 8.46707576" Properties=species:S:1:pos:R:3 enthalpy=-4075700.55127734 pbc="T T T"
H       -0.39392082       1.40527660       2.37438089
Lu       4.78437910       3.29416285       2.11913009
H        3.67068294       2.13817123       3.65063014
Lu       1.63377470       1.73225331       2.94295125
H        0.79365005      -2.51912726       6.21473790
H        0.67635765       3.67700816       2.78718673
Lu       1.66972003      -1.24799072       4.67104076
H       -1.43316220       4.30233989       3.98258204
Lu       4.69527726       0.15787642       3.89325485
H       -1.37595715       1.22007615       5.76054884
H        2.65935901       1.97493673       6.99638731
H       -0.38743145       0.34060942       7.83095830
Lu       3.83003088       3.18486374       5.58250410
H        0.65650062       2.64799528       8.28263215
H        0.58966521       0.56201211       4.50936996
H        3.63722107       5.15517967       1.96529086
Lu       0.60927861       1.55715595       6.44577918
Lu       5.80685097       0.34609382       0.52418175
H        4.73751703       2.23099335       0.20498858
H        1.59897459      -0.28662040       6.64029043
H        1.66998065       0.71044787       1.11985514
H        2.66531017      -0.09717491       3.13098669
Lu       0.65219416      -1.52118531       8.15426322
Lu       1.59893277       4.88780729       1.23800731
H        2.68204283       2.99889621       1.56085018
H       -1.34245775      -1.89732280       7.53893870
H       -0.43395771       4.51002841       0.66143040
Lu       3.72190420      -0.02308570       7.16238212
N        3.66864220      -1.19591705       5.30294498
29
Lattice="6.16318603 0.00506433 0.00711181 1.01209332 6.05198562 -0.00087567 3.05338338 2.58545786 8.48264109" Properties=species:S:1:pos:R:3 enthalpy=-4075700.52781647 pbc="T T T"
H        5.70215194       0.60156326       1.04512499
Lu       8.82581626       5.32807645       5.89909096
H        5.70318024       2.68055673       4.88794256
Lu       5.68024936       6.87604375       5.09178682
H        3.67027624       7.19314543       5.68088877
H        5.72123359       5.92932182       3.13838217
Lu       4.77327280       3.91835958       3.36167544
H        4.73971374       4.96110038       5.24129934
Lu       7.78089462       2.39341022       4.17900322
H        3.69738463       5.07642696       1.83710188
H        3.69731153       2.01510216       3.51989717
H        1.66663271       1.26086207       2.25890540
Lu       7.77142537       5.40510238       2.47660522
H        7.73031493       3.43128524       6.07494361
H        7.75059891       6.50128269       4.39894050
H        4.60736061       2.86014615       1.39832903
Lu       3.64188713       0.96798460       1.59514769
Lu       9.83378901       8.24923554       7.55397368
H        1.64702713       4.45237760       0.49850247
H        2.68493956       4.29673681       4.02104447
H        6.76912057       2.50712390       8.22742743
H        6.75153374       5.62598578       6.48146171
Lu       6.71964406       6.67847369       8.36539703
Lu       5.73056877       3.72053779       6.75633225
H        5.71946823       7.89026530       6.94262888
H        2.65844183       2.21985283       0.18821520
H        8.78744684       6.39949326       7.81811878
Lu       6.76370019       2.54916833       0.81390850
N        6.75710812       3.53751584       2.68344796
29
Lattice="6.16421664 0.00193786 -0.00773031 -1.00247641 6.06332482 -0.00168397 -3.07858589 -2.59387831 8.49002158" Properties=species:S:1:pos:R:3 enthalpy=-4075700.52755685 pbc="T T T"
H        0.61447721       0.62056355       0.90971470
Lu      -0.38761305      -1.68426230       5.80964742
H        2.68755877       0.99442146       4.79338113
Lu       0.66457192       1.68424610       4.98535683
H        0.65008389       3.69115726       5.58539106
H       -0.30541091       1.51290407       3.02927327
Lu       3.73955659       2.08791957       3.23901547
H       -1.39240559       2.30190066       5.14951644
Lu       2.70802878      -1.09917739       4.06274894
H        4.70468712       3.35645818       1.71384232
H        1.67239181       2.83426864       3.40647048
H        0.60524709       4.70917860       2.14130068
Lu      -0.47364734      -0.61249754       2.37250659
H        3.74666943      -0.92837731       5.98238133
H        3.75581942       4.18998932       3.92193983
H        2.66075522       2.09227235       1.28399864
Lu       0.61444011       2.70933223       1.50695972
Lu       2.70563922      -2.17719691       7.44088751
H        3.75814750       5.26201532       0.38526518
H       -2.44425216       3.20614693       7.22578354
H        2.67847620      -0.10869373       8.11934996
H       -0.40502582       0.42647924       6.39835089
Lu       0.64857321       0.61270623       8.25521846
Lu      -2.44695053       1.12564545       6.65529335
H        1.69509692       1.81564602       6.84096365
H        1.69129554       3.89587494       0.07070328
H        0.65711875      -1.47133059       7.70847631
Lu       2.70177132      -0.09553025       0.71086383
N        3.69037889       0.06490457       2.58658463
29
Lattice="6.16366162 0.00147711 -0.00706188 -1.00191326 6.06394571 0.00036973 -3.08106708 -2.58139775 8.4855906" Properties=species:S:1:pos:R:3 enthalpy=-4075700.49679274 pbc="T T T"
H        0.88154273       0.45569112       1.11611616
Lu      -1.10004759       4.21532942       6.00298671
H        2.94457926       0.82412694       4.99301709
Lu       0.94124354       1.51622616       5.17884344
H        0.92754910       3.54715993       5.79265853
H        0.03043754       1.30215268       3.24287452
Lu       4.02465694       1.93296558       3.43137567
H       -1.11653208       2.13087659       5.34534813
Lu       2.98861997      -1.27585600       4.26328633
H        4.02530886       5.10362864       0.58498071
H        0.88942915       4.56432034       2.36648116
H        0.89665384      -0.58521040       4.49661315
Lu      -0.19065584      -0.78948038       2.56805942
H       -2.13197730      -1.08189004       6.18203149
H        1.95887014       2.67488989       3.62041604
H       -3.19912011      -0.26103260       8.29919440
Lu       0.91052311       2.55192588       1.70243162
Lu       2.98150925      -2.33237724       7.65414667
H       -2.16434355       3.05072503       7.43921330
H       -2.12877488       4.03465096       4.16012483
H        2.90854347       1.89205495       1.47417627
H       -0.12304688       0.25704275       6.58422977
Lu       0.91628533       0.46709290       8.45075323
Lu      -2.18251803       0.98010457       6.87443190
H        1.96896533       1.66993928       7.03713845
H        1.96827611       3.73244166       0.26831206
H        0.93570566      -1.61768639       7.90710610
Lu       2.99670719      -0.25432888       0.92080758
N        3.98175034      -0.08608732       2.80664435
29
Lattice="6.15754986 0.00115293 -0.00082472 -1.0072801 6.06288813 0.00051545 -2.0525467 -3.47545572 8.49128231" Properties=species:S:1:pos:R:3 enthalpy=-4075700.48630489 pbc="T T T"
H        5.50466399      -0.37219035       1.04150982
Lu       0.35422842       1.91555531       5.92601702
H        3.47005098      -0.73921731       4.91210269
Lu      -0.67196387      -1.43152041       5.10969336
H       -1.68163787       2.60360703       5.70008989
H        0.26555431      -1.25126930       3.15529631
Lu       1.40260840       4.21641535       3.34765919
H        1.38157953      -2.06542069       5.25843113
Lu       3.44152448       1.35786540       4.19888635
H        0.42452234       2.95743823       1.85312328
H        4.53494128       1.60808393       2.27690008
H        3.45907956       3.47790741       3.53675484
Lu       0.44523289       0.84985861       2.49199076
H        2.39154509       1.17617156       6.09886787
H       -0.64965426       0.65221750       4.40490178
H        2.47547907       4.19932572       1.43797188
Lu       4.51547056       3.60510563       1.60098046
Lu      -2.74041851       2.41827402       7.57582017
H        1.34067278       1.08062663       0.53076692
H        1.35344636       2.10661286       4.06145842
H        3.45618554       0.31916291       8.23320568
H        0.39827011      -0.19386203       6.48067033
Lu      -0.65015984      -0.37767680       8.38215416
Lu       2.43286879      -0.88626543       6.77746627
H       -1.69849918      -1.58070446       6.96015995
H        3.42647112       2.41084913       0.19066420
H        2.44799295      -2.94564134       7.35575780
Lu       3.40920598       0.33381134       0.82857691
N        2.45314536       0.18413226       2.71871302
29
Lattice="6.12368342 0.00614655 -0.0155449 -0.96032458 6.06453013 -0.00715922 -3.2275211 -2.60821008 8.4953262" Properties=species:S:1:pos:R:3 enthalpy=-4075700.48423383 pbc="T T T"
H       -0.41302575       4.77910941       2.41743771
Lu       0.58736383       2.88916818       2.18442484
H        1.64136933       4.06101470       3.72927923
Lu       3.68122418       4.41830300       2.99574666
H        0.39045548      -0.27857927       7.98135436
H        0.57771369       1.82497931       4.06430220
Lu      -1.52353109       1.50944556       4.66231252
H       -1.46183843       2.52721882       2.80491727
Lu       1.58842606      -0.07694825       3.98691137
H        1.45732656      -1.21517696       5.83766791
H       -0.56441017       2.65913476       6.26556799
H        1.45425268       1.99072309       7.59973082
Lu       1.55412553       2.87210077       5.63365499
H       -2.60010950      -1.85447125       7.07268559
H       -0.54655682      -0.44206788       4.56175918
H        1.59980003       0.97472600       2.03664710
Lu      -0.51581520      -1.48841681       6.46901726
Lu      -0.40676292       5.84209962       0.55589375
H       -0.64633413      -2.53843295       8.35123069
H       -2.52753929       3.46428093       4.94326939
H        3.68380387       5.46344594       1.13418522
H        3.63089726       0.23445414       3.18759636
Lu      -0.53868478       1.66084865       8.21781422
Lu       3.62991486       1.28491482       1.33874731
H        2.63096014       3.19622623       1.58534792
H        0.60296129       3.93104501       0.25309595
H       -0.43677887       1.62732640       0.80779814
Lu       2.37935102       0.04478420       7.34086754
N        2.76167107       1.03001492       5.51593229
29
Lattice="6.16575545 0.0060027 0.00946883 1.01247664 6.05825038 -0.00205699 3.05726585 2.59099617 8.49262146" Properties=species:S:1:pos:R:3 enthalpy=-4075700.48134935 pbc="T T T"
H        3.71361149       4.47715881       7.40798407
Lu       8.87292597       5.69854966       6.00350606
H        5.74301528       3.07810307       4.98343059
Lu       5.72680870       7.27728710       5.15285866
H        6.78851603       2.89991529       8.27437863
H        7.77722750       6.89611425       4.47487782
Lu       4.80725284       4.31109115       3.40971211
H        4.76659646       5.35194118       5.33327241
Lu       7.80849612       2.77526874       4.25605093
H        1.69775054       4.82629421       0.56933610
H        5.72093943       6.30415863       3.22794544
H        1.74035535       1.64686519       2.36789943
Lu       7.80012588       5.79725284       2.55069824
H        7.79536631       3.83055967       6.17139641
H        3.74160381       2.40400025       3.60208314
H        3.71712454       5.48370348       1.90796711
Lu       3.68459924       1.35223505       1.66929323
Lu       8.86247541       2.59990246       7.64477025
H        3.70596401       7.58236060       5.77525797
H        2.73069593       4.69468718       4.10669903
H        4.62516448       3.28279229       1.47923067
H        6.78890580       6.02856805       6.55743175
Lu       6.77652546       7.08318221       8.45205558
Lu       5.74111159       4.12306387       6.84490159
H        4.72675649       2.24366041       7.02470183
H        2.69101686       2.59785212       0.24484725
H        8.83427181       6.75595965       7.89423989
Lu       6.79914606       2.95870775       0.90380434
N        6.80406903       3.93769120       2.79595855
29
Lattice="6.08462643 0.00555652 0.00491311 -0.9797208 6.01207065 -0.00605439 -1.98558612 -3.36561675 8.41517491" Properties=species:S:1:pos:R:3 enthalpy=-4075700.47837781 pbc="T T T"
H        2.71198539      -0.24561649       3.18752958
Lu       4.66237921       3.06060304       2.21157526
H       -0.30554614       1.14061795       2.36458404
Lu       1.72830154       1.60284179       2.99145190
H        0.54914390       3.36775750       2.67598667
H        1.72712451       0.43581349       1.10173903
Lu       1.89033466      -1.57932451       4.62648084
H        3.84824215       4.99987833       1.88354027
Lu       4.79481957      -0.18835328       3.84794736
H        0.75289141       0.29388556       4.45880621
H        0.76871810       2.37160324       8.25944635
H       -0.27672102       4.23100439       0.72453449
Lu       3.82462580       2.96650092       5.46102356
H       -1.26530703       1.01517165       5.72083811
H        3.85672795      -1.11063865       5.47223386
H       -0.25495041       0.17392646       7.84104586
Lu       0.74612092       1.31826912       6.38223976
Lu       5.76587836       0.11604282       0.45734685
H        4.77981704       2.00889082       0.28742832
H        1.77707108      -0.53974953       6.55200358
H       -0.21932977       3.23053921       6.11804746
H        2.68047573       2.62340799       1.33760026
Lu       0.79467486      -1.75255825       8.01019328
Lu       1.80323964       4.54019103       1.43707799
H       -1.26194851      -2.05343415       7.42822029
H        2.80626688       1.73307385       6.98353970
H       -1.05592878       4.16480338       4.09599079
Lu       3.78239659      -0.13461341       7.21384295
N        2.78505555       3.49149522       3.55128419
29
Lattice="6.07039591 -0.00046185 0.0010838 -0.99426357 6.05114849 0.00075622 -2.9888366 -2.53631165 8.37903738" Properties=species:S:1:pos:R:3 enthalpy=-4075700.4743821 pbc="T T T"
H       -1.57856493       2.63045855       2.86570076
Lu       0.44741130       2.94965420       2.20127278
H        3.53210876       0.46505458       3.15596840
Lu       3.44835879       4.57529496       3.22211286
H        1.39875185       4.08439132       3.56663037
H        2.50447201       3.33064214       1.63359074
Lu      -1.58703690       1.47016313       4.78900339
H        0.46278769       1.93459894       4.12851281
Lu       1.59797600       0.02391124       3.95768446
H       -2.42992386       3.33751639       4.90881514
H       -0.52456953      -2.33687767       8.30657109
H        0.51447407      -0.07247346       7.85369836
Lu       1.51820731       3.28377966       5.55925635
H       -0.52505322       2.83885199       6.20532239
H       -0.38017308      -0.28744902       4.50772948
H       -0.57637115       1.76054126       0.73583979
Lu      -0.68614226      -1.31907075       6.39983694
Lu       0.45031491      -0.16958677       0.60262003
H        0.43755549       4.00814096       0.34742488
H       -1.39049056       0.69172227       6.72861743
H        3.51397267       5.56833642       1.23046441
H        1.45543569       1.06101839       2.05043428
Lu      -0.49811016       1.84957771       8.10764836
Lu       3.47938560       1.43374535       1.33745789
H        2.40449809       1.46067149       5.36343411
H        1.50401892       2.16299658       7.46997483
H       -0.56328928       4.86508850       2.46528575
Lu       2.57448385       0.26820985       7.16898680
N        3.37464957      -0.70795691       5.31291323
29
Lattice="6.14969485 0.00184133 -0.00195339 -1.01025632 6.06938074 -0.00131537 -2.06251846 -3.48136638 8.48749091" Properties=species:S:1:pos:R:3 enthalpy=-4075700.45481511 pbc="T T T"
H        2.16961074      -3.01125545       7.56426442
Lu       0.09874123       1.86795549       6.12077571
H        3.24656334      -0.75205948       5.12260822
Lu      -0.93594477      -1.48062690       5.29757508
H        3.20341692       0.30729420       8.43380406
H       -0.01390870      -1.26970524       3.32633484
Lu       1.13748963       4.17399287       3.56438063
H        4.25871737       1.55953799       2.47721336
Lu       3.16860647       1.31570553       4.38436069
H        1.11922804       1.01765478       0.72626078
H        0.16403041       2.92678680       2.04806036
H       -0.89162556       0.61129064       4.60038204
Lu       0.19406306       0.81950954       2.70684634
H        2.12721864       1.12787753       6.30583705
H        3.19627341       3.43522787       3.73466915
H        5.26305728      -0.41727200       1.23321311
Lu       4.24796468       3.55655572       1.82955044
Lu       3.16145895       2.38958380       7.76755056
H       -1.94886929       2.53653052       5.92055541
H        1.12121758       2.05962177       4.23989703
H        2.21391616       4.17199423       1.61052247
H        0.10322182      -0.19884496       6.71623416
Lu       1.15167666       3.05642029       0.09767896
Lu       2.17776202      -0.93147482       6.98821683
H       -1.95502383      -1.62841576       7.16330418
H        3.18270329       2.37199234       0.38713869
H       -0.93650918       1.67676797       8.04401550
Lu       3.17394220       0.30270226       1.03011736
N        2.19371950       0.10894863       2.91260656
29
Lattice="6.14415816 0.00207628 -0.00307608 -1.00767064 6.07369511 -0.00387448 -3.09163907 -2.60229281 8.4954231" Properties=species:S:1:pos:R:3 enthalpy=-4075700.44635886 pbc="T T T"
H       -2.57487494      -2.01441324       7.51917392
Lu       0.46553698       2.72263531       2.61818240
H        3.59487440       0.06327386       3.64501828
Lu       3.57964104       4.26860146       3.44209575
H       -0.55111260       4.57052239       2.84793321
H       -2.57259601       3.31870871       5.39798416
Lu      -1.63880058       1.29688270       5.17790353
H       -1.58935993       2.34752096       3.28524414
Lu       1.52095127      -0.21362613       4.36229256
H       -0.55969671       2.46915112       6.69687055
H       -0.56340120      -0.59952270       5.02352168
H        1.45273036      -1.36150200       6.26775708
Lu       1.51819420       2.79714060       6.04303134
H        0.42641834       1.70978916       4.51335233
H        1.53465622       3.91393225       4.14297768
H       -1.45940989       0.25233899       7.13514452
Lu      -0.52006642      -1.66088457       6.94680494
Lu      -0.54330996       5.66752726       0.97297514
H        1.48532052       1.85382551       8.04177821
H       -0.56235818       1.47492319       1.19470970
H        1.52057844       5.95653456       0.28586900
H        2.55466125       3.05257066       2.02823605
Lu       2.55401663       4.08363576       0.16605263
Lu       3.57469287       1.12999267       1.76873722
H        3.57189846       5.31946734       1.58691023
H        0.47749374      -0.40714251       8.35677958
H        0.49547311       3.76222091       0.71025040
Lu       2.53114156      -0.06906688       7.72424539
N        2.51651790       0.93022954       5.85107249
29
Lattice="6.07667353 0.00171951 -0.00265255 -0.98576379 5.99084456 -0.00016052 -2.04612039 -3.36013875 8.46414625" Properties=species:S:1:pos:R:3 enthalpy=-4075700.4448657 pbc="T T T"
H        0.36555490       3.56850412       5.63136385
Lu       0.37675041       1.51660368       6.27003851
H        3.31650066      -1.13805584       5.39163855
Lu      -0.70846235      -1.71002560       5.29022788
H        0.34442520       2.50933573       2.26454702
H        0.32657545      -0.56272057       6.89773713
Lu       1.49853375       3.72765296       3.70343741
H        1.38790292       1.66216103       4.34292184
Lu       3.43968651       0.86307457       4.57317328
H       -0.48472601       4.36683313       3.52138876
H        4.54065005       5.23513299       1.24037858
H        3.38482427       1.95279997       0.59918109
Lu       0.20197901       0.42410239       2.88610080
H        5.41665377       3.34609494       0.14157016
H        3.44111151       2.86346277       3.96031845
H        1.38010983       2.71496568       7.75578301
Lu       4.38349746       3.34724126       2.07142180
Lu      -2.65043310       2.03738969       7.93805851
H       -0.64794370       1.34536307       8.16314208
H        2.33154899       3.73182721       1.69307630
H       -1.67447862      -1.92332642       7.28051937
H        2.39485489       0.82683087       6.48135968
Lu       1.35386026       2.61020809       0.34246421
Lu       2.34908931      -1.22585798       7.16654345
H       -0.55510727       0.37359329       4.90803817
H        1.38072722       0.58955212       0.99719895
H       -1.65115482       2.20207096       6.02244297
Lu       3.43901575      -0.13887223       1.23878445
N        4.24324065      -0.73156586       3.24225150
29
Lattice="6.07671651 -0.00023417 -0.00070438 -0.98733437 6.04879655 -0.00216324 -2.03395945 -3.38207304 8.38150206" Properties=species:S:1:pos:R:3 enthalpy=-4075700.42315611 pbc="T T T"
H        0.52648944       3.72826514       5.65272921
Lu       0.54090843       1.66848453       6.30220852
H       -0.33747703       4.53592770       3.54641447
Lu      -0.52143018      -1.58666997       5.33745008
H        0.48954242       2.64590887       2.31466945
H        0.48326140      -0.42527682       6.90947213
Lu       1.63626723       3.84990148       3.73883791
H        1.53284766       1.78740996       4.38754761
Lu       3.60264825       1.04023383       4.58908083
H        4.57972683       1.47634108       2.65235962
H        4.63863664       5.44651127       1.36268710
H        3.53139179       2.09658621       0.65209153
Lu       0.33481360       0.55519384       2.96360747
H       -0.52404480       3.49998865       0.23500045
H        3.58641842       2.98811244       4.03414957
H        1.53021089       2.89701193       7.79795064
Lu       4.50519587       3.46571263       2.17120860
Lu      -2.49731939       2.18799822       7.93737247
H       -0.48850740       1.50393902       8.19912900
H        2.46140025       3.90523948       1.75405897
H       -1.54771748      -1.80667578       7.28439602
H        2.55241390       0.95741776       6.50137520
Lu       1.49503096       2.77365408       0.39720793
Lu       2.47509788      -1.09396710       7.18708010
H       -0.40524934       0.56534979       4.92191597
H        1.50685169       0.72159258       1.09168377
H       -1.49520313       2.36361668       6.05866322
Lu       3.58337760      -0.00171339       1.36915170
N        4.31893342      -0.76170945       3.48043556
29
Lattice="6.16832475 0.00243298 -0.00922473 -1.00027333 6.06420597 0.00112159 -3.08258253 -2.57860725 8.48505937" Properties=species:S:1:pos:R:3 enthalpy=-4075700.41340855 pbc="T T T"
H        0.67793888       0.53726808       0.88233247
Lu      -1.30424832       4.29659532       5.76553114
H        2.74858379       0.87428623       4.76758658
Lu       0.73276702       1.58677361       4.94639335
H        0.71305146       3.62722135       5.57606077
H       -0.24101534       1.40090854       3.00214456
Lu       3.80770493       1.99163855       3.20061348
H       -1.32807992       2.21085079       5.11534157
Lu       2.77841118      -1.20184786       4.02370293
H        4.78402226       3.25610165       1.69062956
H        0.66126471       4.63565470       2.11004123
H        3.86319152       4.12002605       3.89612232
Lu      -0.39583044      -0.70212391       2.35440332
H        3.82555549      -1.02334249       5.94766280
H        0.69482069      -0.49401615       4.25390589
H        2.73939670       1.97885712       1.23090557
Lu       0.68858467       2.62069227       1.46518044
Lu       1.77949090       3.79960012       7.41182761
H        3.83194284       5.16586369       0.36127904
H       -2.37011801       3.11773677       7.20198917
H        2.74893927      -0.18641537       8.08534079
H       -0.33063385       0.33709074       6.33540247
Lu       0.71192528       0.53905897       8.22992360
Lu      -2.38696085       1.04806146       6.62998772
H        1.76283197       1.73949120       6.80068209
H        1.76767669       3.79982868       0.03511529
H        0.73390485      -1.54693511       7.67113526
Lu       2.77426958      -0.17658537       0.68137650
N        3.76007436      -0.02715165       2.55625691
29
Lattice="6.1695081 0.00112222 -0.00612341 -1.02037522 6.06231155 -0.00381062 -3.07914117 -2.59803141 8.48443245" Properties=species:S:1:pos:R:3 enthalpy=-4075700.40969687 pbc="T T T"
H       -1.03355896      -0.01905824       4.40530942
Lu       0.08237408       3.23336910       2.08455289
H        4.18927698      -0.18889134       0.97735334
Lu       3.13670778       4.82774510       2.88825246
H        4.20415022       2.98054345       2.73844003
H        2.11406235       3.59995587       1.46979913
Lu      -2.02688715       1.88349995       4.60116391
H        3.16716807       3.82398859       4.83360542
Lu       1.10511229       0.28455582       3.84084065
H        5.17314290       2.01178564       0.60582825
H       -0.92953465      -2.11121574       8.25693231
H        3.19805577      -1.45562987       7.04590185
Lu       1.10177932       3.51206747       5.46945363
H       -1.96377860       0.84207720       6.53061788
H        1.10397103       4.43071112       3.51394492
H        1.06148790       2.40463244       7.39671483
Lu      -0.90899872      -1.05770493       6.32929730
Lu       0.09081752       0.13937500       0.44840884
H       -0.96228789       5.15007588       2.34356769
H        1.07848833       1.37218616       1.85196113
H        2.16558380       1.60106242       5.31062955
H        0.07465400       4.31016357       0.21840823
Lu      -0.98682227       2.03243927       8.09670090
Lu       3.12628168       1.71800635       1.29406557
H       -0.97993446       2.96979060       6.13289368
H        0.03647473       0.16957757       7.92246392
H        0.04304597       2.22255915       4.03963321
Lu       2.11590695       0.47035688       7.17197476
N        1.08926069      -0.70389214       5.73898898
29
Lattice="6.14810819 0.00420301 0.00183998 -1.01454301 6.07781483 -0.00936245 -2.03874765 -3.46330641 8.49381681" Properties=species:S:1:pos:R:3 enthalpy=-4075700.40423164 pbc="T T T"
H       -0.54010799       1.45146945       2.24007957
Lu       4.60621283       3.33663492       2.01843332
H       -1.51780424       1.31479540       5.66956590
Lu       1.47345853       1.75662683       2.84507782
H       -0.55416280       0.37829305       7.74502803
H       -1.53057881       4.34863315       3.90044344
Lu       1.56868407      -1.34301728       4.58599006
H        0.48401144       3.68432534       2.69280507
Lu       4.55576261       0.19654688       3.75977157
H        2.50946352       1.97946395       6.90793618
H       -0.51086896       3.56582466       6.10316775
H       -1.53716553      -1.88727309       7.42850400
Lu       3.55136571       3.24357342       5.44658648
H        1.39619467      -0.28307680       6.54338636
H        0.50575645       0.57043129       4.41123471
H        3.54557757       5.24071746       1.84379793
Lu       0.44722591       1.61478889       6.34149727
Lu       5.60653579       0.36910914       0.38279463
H        0.50652509       2.67133536       8.19385745
H        1.49988724       2.71689237       4.79699831
H        1.47971992       0.68747185       0.98389418
H        2.50286002      -0.10529903       3.03653036
Lu       0.46713858      -1.52276805       8.06158569
Lu       1.48875788       4.91752998       1.16233495
H        3.53863044       2.12052223       3.56774451
H        4.58868812       2.25945458       0.08534494
H       -0.55350927       4.56023144       0.58737476
Lu       3.56767797       0.02518877       7.12250502
N        3.54693121      -0.97021969       5.24173821
29
Lattice="6.15461951 0.00216429 -0.00203898 -1.00519617 6.07018722 -0.00390601 -2.04134544 -3.48653383 8.49139591" Properties=species:S:1:pos:R:3 enthalpy=-4075700.39738934 pbc="T T T"
H        4.45853693       1.56908728       2.30702072
Lu       0.29973877       1.86865882       5.94213832
H        3.40488337      -0.78233897       4.92877796
Lu      -0.74772523      -1.47843859       5.11653762
H       -0.70081533       0.59991780       4.41464134
H       -0.80436950       4.76104336       3.15876207
Lu       1.32929037       4.16614824       3.35021306
H        1.31619400      -2.09908844       5.28127344
Lu       3.36613850       1.30784733       4.20457102
H        0.37269328       2.88968257       1.87810025
H       -1.74611876      -1.66500870       6.96607460
H        1.29302462       2.06487202       4.06220016
Lu       0.37398180       0.80869087       2.48950683
H        2.31712431       1.12239899       6.09119316
H        3.39264248       3.44249960       3.53656707
H        2.39689932       4.17873302       1.41390429
Lu       4.44545972       3.55459885       1.61163151
Lu       3.37521856       2.36592023       7.59237361
H        5.41241800      -0.40652156       1.07662037
H        2.36882548      -3.02033856       7.36345887
H        1.29406000       1.00594306       0.53320572
H        0.32446707      -0.22702926       6.50201199
Lu      -0.71525812      -0.42290092       8.39309607
Lu       2.37934046      -0.94865523       6.80242101
H       -1.72498423       2.55221639       5.72100194
H        3.32402211       2.34511141       0.20537982
H       -0.70776027       1.67898831       7.83431790
Lu       3.35198482       0.28640146       0.84476804
N        2.38369277       0.12733819       2.74531281
