30
Lattice="6.17766692 0.00196092 0.00349242 1.03465344 6.10794173 0.00510426 2.06481948 0.70068428 7.65094353" Properties=species:S:1:pos:R:3 enthalpy=-3668342.81616354 pbc="T T T"
H        2.48959861       4.45544177       4.44713148
H        2.15073815       1.73652683       1.72565681
H        3.09904266       3.56630798       0.46909806
H        4.21553120       4.42260643       2.58084540
H        7.22519632       4.99617934       0.90434396
H        2.08766711       0.67247911       5.10681533
H        6.53681788       4.10076643       5.77708649
H        5.15374853       2.20046368       0.05246017
H        6.56465192       4.69485064       3.23928478
H        4.17780801       3.41607838       5.98250527
H        7.33942402       2.61673970       3.87481178
H        6.18781268       6.22942892       6.77998740
H        3.15547963       1.54772859       7.14196026
H        4.14778854       0.25417151       1.22650722
H        6.22909826       1.93616288       5.64711001
H        6.27051488       3.08728348       1.95281022
H        3.19543244       2.56769792       3.85834488
H        5.03688566       5.38484100       4.76633031
H        2.17925915       5.92028254       2.92734000
H        8.39336520       4.78228082       6.56858528
Lu       2.09427153       3.83912272       2.43335875
Lu       3.21048932       0.50813145       3.20366795
Lu       7.19625403       6.01209811       4.82624663
Lu       5.31916867       3.18026505       4.07817475
Lu       2.08346244       2.79525043       5.71476972
Lu       4.12695870       5.57625540       6.68252373
Lu       5.16466872       4.32025538       0.60191772
Lu       6.21059455       0.99495232       1.53018861
Lu       5.19190650       2.12086166       7.45858240
N        5.19587028       1.17060488       3.37325534
30
Lattice="6.18887574 0.00229853 -0.00020966 1.02153316 6.08278356 0.00507588 1.02907772 1.9170537 7.65132767" Properties=species:S:1:pos:R:3 enthalpy=-3668342.77133847 pbc="T T T"
H        1.29071362       5.78399816       2.62283733
H        6.40116336       5.92524644       5.99456293
H        4.50932258       5.27356168       7.26446417
H        2.34808809       5.59297610       6.89513862
H        3.40775638       7.59222991       6.85630177
H        5.44798604       5.03204144       3.89977152
H        4.39425584       2.12293223       5.76314247
H        4.43085766       1.11970944       0.05468999
H        3.42730103       4.33146007       5.17150094
H        4.42861246       4.21095157       1.77107626
H        5.70054467       7.05093602       3.86592700
H        1.29311110       2.63269166       1.04913681
H        6.43840987       4.92027184       0.66580143
H        1.33284240       3.66076676       6.55303113
H        5.47776888       1.93890730       2.09613388
H        2.78903282       2.02144226       4.39493430
H        3.66300214       5.96678690       3.29834577
H        2.36209873       3.63635312       2.96069040
H        2.29612789       6.58479550       4.82098159
H        2.34653547       0.36613431       1.24646789
Lu       4.38284681       6.34903282       5.28792098
Lu       1.28254102       4.64185985       4.53213039
Lu       1.35618996       1.63662526       2.90965921
Lu       4.47580314       3.06407053       3.69219356
Lu       5.39658274       6.13370009       2.01873553
Lu       2.34177947       4.53618067       1.04807782
Lu       3.38216251       3.41274138       7.17832386
Lu       6.48099821       1.78662793       6.21685575
Lu       5.47202396       3.02332848       0.30162088
N        6.48356590       2.81773912       4.37664812
30
Lattice="6.16556601 0.00910308 0.00351229 1.0705582 6.08734948 -0.00632423 1.01082683 1.89724646 7.67655269" Properties=species:S:1:pos:R:3 enthalpy=-3668342.76346122 pbc="T T T"
H        5.73921120       4.75013853       3.59142250
H        4.55143400       1.80429361       5.40510985
H        2.10109678       5.28712907       6.32175918
H        3.70592235       7.12539622       6.66310619
H        6.09556447       4.38172702       5.75404632
H        3.74693281       5.07769030       2.76079493
H        3.73875318       0.93192743       3.28533833
H        5.73382085       2.63044004       7.47950087
H        6.81579829       4.50449738       0.44001628
H        4.81969280       3.77054011       1.49569268
H        3.70779034       3.99170600       4.99978988
H        1.55970736       5.39436172       2.42884356
H        1.63881032       2.31433706       0.75751198
H        1.68671068       3.18123893       6.31113322
H        5.68690224       1.54604294       1.87934012
H        4.63837675       4.87837113       7.17443051
H        2.86382921       6.27993774       4.52422017
H        2.69352114       3.10924503       2.76755057
H        6.76598217       6.19640581       4.65560272
H        3.72277612       6.16587650       1.03248340
Lu       4.81579770       5.91290656       5.21569527
Lu       1.56431382       4.32615133       4.40391632
Lu       1.65311163       1.20800145       2.65498093
Lu       4.79241946       2.83707957       3.45364384
Lu       5.70435709       5.74953849       1.67904557
Lu       2.74068734       4.24744552       0.97953173
Lu       3.65031328       2.92652440       6.94448630
Lu       7.85308346       7.45049940       5.93093183
Lu       5.77508483       2.62123168       0.01259535
N        6.76998593       2.44033351       4.06116700
30
Lattice="6.16593489 0.00464737 0.00569214 1.00807834 6.11174891 0.00695059 2.04922976 0.72229695 7.64229407" Properties=species:S:1:pos:R:3 enthalpy=-3668342.75784882 pbc="T T T"
H        3.48302518       6.28628551       5.02853497
H        2.52857416       1.21021977       1.68536649
H        3.45291815       3.07525307       0.25332971
H        1.44099034       4.52466120       0.81885908
H        2.39772310       5.37289167       2.91209650
H        3.33148217       1.99368562       3.80678473
H        6.75169046       2.61342284       1.98142609
H        7.60498054       2.48284088       7.61868754
H        3.73940984       4.90521782       1.31620851
H        4.50609302       2.93438726       5.87150485
H        5.87757887       4.41245181       2.60445531
H        6.55157340       5.77625269       6.73791232
H        3.54636166       1.02484899       7.10905324
H        5.57821498       5.99356412       1.12562610
H        6.60941208       1.62624381       5.52818556
H        4.49527713       2.67912573       2.00353468
H        3.78845915       4.13472033       3.89426697
H        5.58762906       4.89308450       4.78759444
H        7.59777275       3.45282583       4.18353796
H        2.45929138       4.30892473       6.36352082
Lu       2.57295234       3.34936826       2.27758756
Lu       4.63713403       6.02408921       3.13689661
Lu       7.55878431       5.64512152       4.83094863
Lu       5.49815220       2.77763808       3.89553050
Lu       2.45459613       2.23170848       5.75437110
Lu       4.48598929       5.03294145       6.54897829
Lu       5.54979623       3.85800074       0.61157912
Lu       6.58797054       0.53372657       1.48608698
Lu       5.55874891       1.76848549       7.34823288
N        5.60523303       0.71969492       3.35374983
30
Lattice="6.17003618 -0.0042011 -0.00901709 1.01998317 6.08199082 0.00994294 1.03549045 1.92449498 7.68733667" Properties=species:S:1:pos:R:3 enthalpy=-3668342.74677398 pbc="T T T"
H        3.21340622       6.01151713       2.57484193
H        6.26215874       6.27419614       5.88026113
H        4.25736529       5.58537498       7.25242582
H        3.15411630       4.58401653       5.06664321
H        2.16168811       1.72708029       6.63836381
H        7.14910661       6.01227415       2.56958063
H        2.91607863       2.00677568       1.35814700
H        5.39524389       3.29164296       7.56803952
H        4.15643953       2.36864057       5.55127063
H        4.33100664       4.36925017       1.67472758
H        3.30185593       1.56142550       3.49474087
H        1.10322729       3.08026916       0.81786119
H        6.26323781       5.18691292       0.44370635
H        7.37905085       3.96418911       6.38487257
H        5.24074680       2.17916235       1.96240658
H        3.88701638       5.94244456       0.23292593
H        5.19866712       5.41838642       3.77728591
H        2.21352625       3.83079717       2.83798145
H        2.22709588       6.84195030       4.60043939
H        0.71789958       0.91192741       0.73021910
Lu       4.17233398       6.49642471       5.32032844
Lu       7.23459350       4.93889395       4.46385865
Lu       1.17401177       1.85943987       2.67064065
Lu       4.32365013       3.41760626       3.64034067
Lu       5.13519718       6.42601033       1.83590343
Lu       2.18122617       4.93374714       0.98807324
Lu       3.23882091       3.64202482       7.04813906
Lu       6.33902469       2.07990189       6.01969235
Lu       5.29643110       3.28059423       0.07347645
N        6.33416359       3.02237268       4.12156917
30
Lattice="6.14444916 0.00335689 0.00249329 0.97431209 6.06740455 -0.00782977 2.07050442 0.67360308 7.62390763" Properties=species:S:1:pos:R:3 enthalpy=-3668342.74314936 pbc="T T T"
H        2.51612491       0.45673026       5.00352132
H        2.38628911       1.37118918       1.75348856
H        3.39560372       3.37911259       0.29703668
H        1.40377115       4.65540829       0.92587826
H        2.45991467       5.48542774       2.90336598
H        3.39410331       2.21599620       3.83191098
H        6.60810352       2.88532219       2.09315333
H        7.62730269       2.63180527       7.60991791
H        3.61455252       1.22092418       7.12179041
H        4.55457422       3.05786174       5.97268665
H        4.60367294       4.24657771       2.54044696
H        6.58438462       1.81277149       5.56781199
H        6.47643491       5.90430417       6.75078403
H        5.45476706       6.02601675       1.25199088
H        8.69312204       6.52876093       6.95718523
H        4.31666408       2.33031423       1.71296339
H        3.45670794       4.31663730       4.53594586
H        5.55844996       5.00465789       4.75473604
H        7.52640115       3.58372841       4.19759372
H        2.41391660       4.39890554       6.45332738
Lu       2.54148244       3.47624703       2.28487365
Lu       4.57419527       6.22737959       3.19987786
Lu       7.60818332       5.73840071       4.86983443
Lu       5.49233172       2.86457315       4.00887964
Lu       2.48013667       2.45875347       5.76181433
Lu       4.42846152       5.20282128       6.55646477
Lu       5.46925417       3.97588670       0.61686384
Lu       6.54782460       0.66748041       1.50128707
Lu       5.56066603       1.92665650       7.48040466
N        5.62831548       0.82613248       3.42587332
30
Lattice="6.16127153 0.00302613 -0.00203227 1.00279207 6.09620576 0.00425225 2.07755123 0.72451027 7.65497319" Properties=species:S:1:pos:R:3 enthalpy=-3668342.73212661 pbc="T T T"
H        3.46911328       6.45172459       5.03555059
H        2.45273233       1.38112916       1.75878780
H        3.38800542       3.29555760       0.34083202
H        1.37318842       4.66807762       0.92947524
H        2.39838396       5.53797087       2.94714956
H        3.29128156       2.16888493       3.89007478
H        6.68635544       2.78097819       2.04616530
H        5.48147294       1.95885687       0.04873605
H        3.56479018       1.23696597       7.18042640
H        4.46164418       3.12113600       5.96144833
H        5.73805177       4.55592493       2.66400062
H        6.52350149       1.86436678       5.57085400
H        6.48052178       5.93099135       6.81035142
H        5.46257373       6.13098743       1.22653693
H        8.70908594       6.66437836       6.92954827
H        4.42809455       2.82249345       2.05688268
H        3.72473768       4.28748549       3.95183514
H        5.55165871       5.03411257       4.87798865
H        7.53990783       3.62711654       4.25046720
H        2.40633065       4.42772608       6.42523121
Lu       2.49965328       3.51126201       2.34542356
Lu       4.58112525       6.19388698       3.21889128
Lu       7.52697236       5.82712499       4.89953202
Lu       5.42619348       2.94272165       3.95308196
Lu       2.40131080       2.38181587       5.83944136
Lu       4.44137878       5.24553213       6.66138216
Lu       5.48816550       3.99743324       0.67548649
Lu       6.54219132       0.68008288       1.53454922
Lu       5.49507707       1.90551303       7.45749159
N        5.58084420       0.87224958       3.41989250
30
Lattice="6.17884612 0.00153628 -0.0003929 1.00690615 6.08052393 -0.00264841 2.06019135 0.6836508 7.6694411" Properties=species:S:1:pos:R:3 enthalpy=-3668342.72551103 pbc="T T T"
H        2.62946030       0.54120841       5.04167804
H        2.42347534       1.39159299       1.76820802
H        3.53267273       3.41143824       0.27684837
H        1.48218048       4.73022438       0.95504978
H        2.59745479       5.49754288       2.99294028
H        3.50938695       2.37226635       3.85586719
H        6.68923655       2.91497533       2.08636813
H        5.62362885       1.85886618       0.00700190
H        3.56954568       1.25937053       7.16212686
H        4.66317785       3.05560071       5.96888808
H        4.68932744       4.27394928       2.57266115
H        6.70274621       1.82221394       5.64513952
H        6.50447463       6.04396858       6.78018851
H        5.60052747       6.05443913       1.21593104
H        8.71885841       6.01532502       6.86991982
H        4.32026125       2.24722667       1.75226701
H        3.27441984       4.43236676       5.08420588
H        5.58160407       5.03337900       4.76783925
H        7.65893307       3.63402918       4.10516496
H        7.37213107       4.09473899       6.23766985
Lu       2.60576638       3.50603335       2.22846038
Lu       4.67535667       6.33641979       3.16315046
Lu       7.73031782       5.74146176       4.93845452
Lu       5.65879168       2.87206482       4.00610267
Lu       2.54235892       2.58039257       5.77326399
Lu       4.50857302       5.26011764       6.61609748
Lu       5.58772771       4.01873875       0.56775186
Lu       6.65564710       0.72040735       1.55827646
Lu       5.56088563       1.96233271       7.56368532
N        5.70217022       0.84805074       3.47415266
30
Lattice="6.16437139 0.002573 0.00207915 1.03715328 6.09407312 0.00192033 1.0425025 1.912514 7.6828043" Properties=species:S:1:pos:R:3 enthalpy=-3668342.70847259 pbc="T T T"
H        1.02049509       3.22393424       1.02419895
H        6.41841719       6.56194665       6.01585035
H        4.90699462       5.04596600       6.36452177
H        3.15214699       4.85291421       5.15178355
H        4.96469646       7.16873871       7.50569330
H        7.31346162       6.37513073       2.63414141
H        2.19973234       0.95963343       1.34339536
H        4.26078381       1.56255672       0.12451682
H        4.15911734       2.69100904       5.71046271
H        4.32049462       4.82134648       1.90843316
H        3.20937098       1.85538703       3.56123357
H        3.19617055       3.20962403       1.02881110
H        2.81240851       6.12740729       6.91099777
H        7.36089232       4.35998387       6.57284058
H        5.20748043       2.50980814       2.18634779
H        2.17444088       2.18103427       6.87206418
H        5.26812827       5.74632604       3.94333398
H        2.21931712       4.10721863       2.98466032
H        2.27874863       7.21228857       4.83817855
H        6.29959042       5.44757827       0.59639074
Lu       4.26377044       6.84460319       5.48733517
Lu       7.34077737       5.27634915       4.49746007
Lu       1.09174243       2.18838208       2.91086441
Lu       4.34135628       3.75659820       3.74494999
Lu       4.23111532       0.59882273       2.04959376
Lu       2.22459595       5.15125086       1.13082359
Lu       3.21742428       4.04824986       7.18715091
Lu       6.31957644       2.38537311       6.23812441
Lu       5.17059811       3.58782200       0.31580412
N        6.33698860       3.41547245       4.41753952
30
Lattice="6.15583475 0.00494567 0.00477476 1.05356616 6.10357312 -0.00143256 1.01395897 1.90401683 7.67245264" Properties=species:S:1:pos:R:3 enthalpy=-3668342.68640569 pbc="T T T"
H        1.12195973       3.18921418       1.10274665
H        6.25320696       7.11065421       4.93077978
H        5.57154364       5.26100170       6.11041163
H        3.20653612       4.88740665       5.36884246
H        5.52300390       7.39118382       7.33339788
H        7.31421567       6.32792609       2.81665932
H        2.19231473       0.85531588       1.48808226
H        4.24574313       1.60584839       0.16142038
H        4.04423898       2.73565289       5.74253997
H        4.25911403       4.76406915       1.92247806
H        3.24831688       1.79264186       3.65435313
H        4.08431075       5.76081385       7.50989250
H        7.74235404       6.21202582       6.69215503
H        7.34253177       4.09473507       6.71504758
H        5.24953422       2.47055075       2.26098443
H        2.15172594       1.93461353       7.02884348
H        5.15490123       5.64836223       3.93919261
H        2.23387477       4.12330134       3.18398248
H        2.38595039       7.14220899       4.84485940
H        6.32220863       5.36108070       0.89029346
Lu       4.33307567       6.80633167       5.57304619
Lu       7.24693117       5.23859536       4.78205153
Lu       1.18880756       2.15857123       3.00483808
Lu       4.32372802       3.70807770       3.79825579
Lu       4.23354615       0.60002518       2.09140013
Lu       2.18501509       5.09623534       1.32873371
Lu       3.16096586       3.86003125       7.34153432
Lu       6.26596985       2.23820910       6.30483641
Lu       5.24342747       3.54115777       0.38651742
N        6.31509710       3.32723110       4.46386470
30
Lattice="6.2065082 0.00027943 0.00014352 1.01839832 6.05200855 -0.00105131 2.0922573 0.71103263 7.6589801" Properties=species:S:1:pos:R:3 enthalpy=-3668342.66720444 pbc="T T T"
H        5.99539050       6.14439206       6.75053149
H        1.78769714       1.44084406       1.70587821
H        3.52089862       2.65577409       1.42472642
H        4.00000025       4.35396450       2.67239964
H        6.84601637       4.78529848       0.93153759
H        7.28720626       1.69900062       3.84467725
H        8.04724402       4.62294161       6.42881930
H        7.08917783       2.66976771       7.65418807
H        5.98206880       3.00732730       2.12594376
H        3.84673291       3.20713068       5.95312510
H        6.98291760       3.87134067       4.27520903
H        5.62096528       4.01386993       6.80631269
H        2.80541649       4.87154787       0.90303113
H        4.84721130       6.16096035       1.23007492
H        5.98557198       1.94767558       5.64791824
H        2.93358789       6.47867219       5.26467295
H        2.92020500       2.51120358       3.90044363
H        4.91179173       5.13174699       4.81607579
H        1.82373277       5.57056828       2.95905475
H        2.91958930       1.34297720       7.19745047
Lu       1.85641593       3.56329280       2.35144922
Lu       2.86398235       0.34969329       3.32693182
Lu       7.01316135       5.95104251       4.86320695
Lu       4.93507890       2.98519261       4.06154092
Lu       8.06514620       2.55156782       5.74481287
Lu       3.90431024       5.30355569       6.68293847
Lu       4.81228045       4.09957614       0.61448537
Lu       5.92532305       0.82339293       1.55523576
Lu       4.96301747       2.11175078       7.49384086
N        4.88202064       0.96119839       3.38526082
30
Lattice="6.14210423 -0.00056677 0.00306479 1.04226862 6.09741453 0.00300078 1.0567091 1.9105946 7.60074208" Properties=species:S:1:pos:R:3 enthalpy=-3668342.66067909 pbc="T T T"
H        3.17995973       5.60498149       3.18551919
H        6.18896863       5.94076141       6.03391377
H        5.17387810       5.05809643       3.89637639
H        2.16030534       5.65285987       6.81837283
H        3.20869270       7.65209377       6.83053351
H        7.18540458       5.78158643       2.57432696
H        4.28674867       5.28952701       7.27873924
H        4.16817274       1.16310300       0.10260400
H        3.19951376       4.35906180       5.18032571
H        4.22587144       4.22291430       1.77919825
H        3.02954619       1.44188619       3.52851672
H        1.09494639       2.70072636       1.06873702
H        6.18848805       4.96447645       0.69195194
H        7.27177506       3.70581539       6.52093437
H        5.14920140       1.97309987       2.13310530
H        4.07646946       2.17831302       5.65650900
H        5.95117101       6.87870318       4.08773321
H        2.15141338       3.56588286       2.97373319
H        2.21043887       6.71902463       4.80548929
H        2.11084837       0.45315989       1.28273018
Lu       4.22496190       6.35265765       5.34527086
Lu       7.24432936       4.76023206       4.50633954
Lu       1.07817615       1.63107814       2.89600601
Lu       4.27062487       3.15383556       3.71534832
Lu       5.13667707       6.18707250       2.06200028
Lu       2.14614274       4.62430150       1.13242355
Lu       3.14918773       3.44008546       7.13314268
Lu       6.24701443       1.82339529       6.18916603
Lu       5.22680366       3.07435167       0.30049136
N        6.28980723       2.90526086       4.35597574
30
Lattice="6.1600992 0.00230558 0.0010415 1.06354712 6.10448083 0.00397137 1.04344214 1.94389971 7.65873774" Properties=species:S:1:pos:R:3 enthalpy=-3668342.6598211 pbc="T T T"
H        1.26504943       5.77216163       2.44724675
H        6.50016604       6.03133049       5.97464062
H        4.95606706       4.54016559       6.29184618
H        2.90925583       5.61137188       6.80249072
H        3.27554346       7.76996589       6.75455449
H        6.25356803       6.79897242       3.88163380
H        5.02826407       6.67803358       7.39117455
H        4.29284282       1.06071774       0.05855342
H        3.19155333       4.35566510       5.02679670
H        4.34547425       4.27317763       1.78554598
H        3.15709309       1.32128183       3.44594902
H        1.13206514       2.70588403       0.92848376
H        6.34028952       4.92130484       0.51740081
H        7.40326966       3.82971525       6.46118763
H        5.28944947       1.99862890       2.04149141
H        4.19798311       2.17845525       5.59440907
H        5.15721748       5.11453922       3.79858966
H        2.26049333       3.62096417       2.89169451
H        2.36881069       6.70341493       4.73113801
H        2.23058102       0.39959489       1.26605151
Lu       4.33996687       6.32928281       5.39163302
Lu       7.32769390       4.80626275       4.38714843
Lu       1.16918685       1.67140435       2.78952814
Lu       4.36049268       3.17807644       3.59434661
Lu       5.34334834       6.22952263       1.99695922
Lu       2.27481472       4.62014952       1.01023803
Lu       3.27545307       3.52051381       7.06222734
Lu       6.36650708       1.89441205       6.09995262
Lu       5.23315568       3.04621038       0.21561432
N        6.38819459       2.93124676       4.28119369
30
Lattice="6.12081005 0.00272232 0.0015699 1.03658378 6.08123947 0.00510959 2.06196526 0.75469639 7.63817864" Properties=species:S:1:pos:R:3 enthalpy=-3668342.63427058 pbc="T T T"
H        3.38673080       1.82431950       3.97574225
H        6.58419916       4.19481510       2.86454683
H        3.51492975       4.94404991       1.09564037
H        1.44303118       4.25430802       0.94145857
H        6.64621414       2.32009174       2.16918196
H        3.46942576       3.89031339       4.74431104
H        7.56976198       3.12611566       4.43292379
H        5.52760240       1.49230295       0.22216768
H        3.53419817       0.85985683       7.25711124
H        4.60785699       2.70595811       6.16282601
H        4.49990918       3.62850837       2.69019533
H        3.56934070       6.12613313       5.27038232
H        6.64244637       5.54229545       6.88734679
H        5.60364787       5.67564598       1.38251187
H        6.65003656       1.36810873       5.78785053
H        3.51980666       2.79203535       0.61768556
H        2.57216401       5.16882781       3.13580337
H        5.60658522       4.68238919       4.94935045
H        2.54250346       1.02585281       1.93670263
H        2.50774639       4.15554626       6.64951225
Lu       2.44542931       3.14229537       2.50417573
Lu       4.70158792       5.82396914       3.38763948
Lu       7.63149881       5.35926611       5.01733610
Lu       5.56819297       2.56091376       4.20149937
Lu       2.54425129       2.13484922       5.92320765
Lu       4.57465391       4.82512267       6.78915364
Lu       5.55980680       3.59597915       0.81516170
Lu       6.57951796       0.25703839       1.70259763
Lu       5.54171344       1.51461932       7.61359985
N        5.60462637       0.55491486       3.58556323
30
Lattice="6.14739819 0.00203076 -0.00247352 0.9963363 6.0548071 0.00467304 0.98467666 1.94479082 7.63860864" Properties=species:S:1:pos:R:3 enthalpy=-3668342.62487259 pbc="T T T"
H        5.71224978       4.85034762       3.61761916
H        4.56033119       1.77584092       5.34747461
H        2.63265345       5.32493824       6.45409313
H        3.65107621       7.26806267       6.56701424
H        5.51350439       3.95803032       5.71843224
H        3.64431110       5.11280685       2.80523334
H        3.71797151       0.97209805       3.25016887
H        5.69569919       2.66605799       7.45894502
H        6.70403967       4.54367322       0.35069266
H        4.74730633       3.81457673       1.45256933
H        3.54157476       3.94126635       4.84475955
H        1.47448397       5.42758327       2.36309377
H        1.60482528       2.30893822       0.71719658
H        1.63489439       3.34209318       6.21167829
H        5.65438704       1.59201614       1.82636159
H        4.67319804       5.01364413       7.18622334
H        2.67686690       6.28467157       4.48962975
H        2.63527274       3.13958044       2.68541560
H        6.68992958       5.71673056       5.64282964
H        3.65789839       6.14031428       0.94434921
Lu       4.62222851       5.87690481       5.18850299
Lu       1.55156404       4.29687230       4.23282119
Lu       1.61666211       1.22672494       2.56430507
Lu       4.75354116       2.85703537       3.40852760
Lu       5.61784208       5.77415807       1.67172840
Lu       2.64033785       4.25071302       0.87462396
Lu       3.67132857       3.08480688       6.82418203
Lu       7.75607163       7.51116836       5.92887547
Lu       6.70197105       4.58987958       7.58771056
N        6.73875121       2.42104290       3.99621218
30
Lattice="6.13945681 0.00080774 -0.00613482 1.04832389 6.09769031 0.00051789 1.06193249 1.91732109 7.60048604" Properties=species:S:1:pos:R:3 enthalpy=-3668342.61042607 pbc="T T T"
H        1.26687092       3.16218782       0.83668169
H        6.41707643       6.40231570       5.86891351
H        4.52882747       5.74730226       7.01476531
H        3.43134204       4.84693830       4.97051156
H        2.42313693       2.01504905       6.63747186
H        5.22680327       1.16175218       3.90429339
H        2.34419117       0.77790552       1.16553499
H        5.52069124       3.49379735       7.42199287
H        4.30905188       2.63575990       5.44989211
H        4.44611062       4.75373540       1.60007812
H        3.28170726       1.76182567       3.33466483
H        3.37083102       2.68604132       1.30667509
H        2.37739472       6.18662069       6.58302643
H        1.40180865       4.17285400       6.33042624
H        5.46834946       2.44663736       1.94766111
H        1.38165426       6.24446585       2.39479078
H        5.28203832       5.55629987       3.64494459
H        2.39377543       4.11264590       2.82114505
H        2.49670741       7.15614903       4.52693284
H        6.42438835       5.41574113       0.47646467
Lu       4.47317972       6.81139372       5.16598970
Lu       7.44114517       5.25500562       4.33901581
Lu       1.33344498       2.16444282       2.69186699
Lu       4.49749120       3.61441989       3.49428660
Lu       4.39096565       0.59318358       1.81934622
Lu       2.36083925       5.06262193       0.90484260
Lu       3.42143626       3.86602945       6.97455812
Lu       6.50603928       2.26678841       5.98001450
Lu       5.44991625       3.51791721       0.11293478
N        6.49767515       3.38774523       4.16362868
30
Lattice="6.14446892 -0.00310632 -0.00615649 1.00410679 6.06717107 0.00013977 1.02343127 1.8782063 7.60229627" Properties=species:S:1:pos:R:3 enthalpy=-3668342.60962307 pbc="T T T"
H        3.25201981       5.65593216       3.13678180
H        6.25669080       6.14166713       5.76639139
H        4.24264471       5.47212201       6.98708530
H        3.23353441       4.51440596       5.03033213
H        3.23220694       7.68956020       6.57918185
H        7.22766320       5.97848949       2.47568853
H        3.25642102       2.51198411       1.22566746
H        5.23457648       3.17998082       7.36269649
H        4.13392364       2.31328570       5.41661129
H        4.30570494       4.45847028       1.54448012
H        3.30240156       1.53858916       3.32498501
H        1.10311644       2.93149953       0.76694952
H        6.23377836       5.01874275       0.38965438
H        7.34908171       3.92179186       6.25371692
H        5.28614497       2.17113295       1.96723713
H        2.24950335       0.54082833       1.08691533
H        5.33825309       5.39991274       3.66679909
H        2.16756819       3.72989568       2.79204702
H        2.20020885       6.85227639       4.59123449
H        6.25646798       0.79988748       0.49055913
Lu       4.17677567       6.46517597       5.14912704
Lu       7.33024763       4.86962624       4.32007664
Lu       1.16399459       1.84086065       2.69274233
Lu       4.30981132       3.42659729       3.47806755
Lu       5.23880970       6.36527470       1.71507255
Lu       2.17907371       4.80672687       0.92267286
Lu       3.20139298       3.56362887       6.94107731
Lu       6.33416860       1.99408676       6.00732378
Lu       5.22089260       3.22004566       0.09712319
N        6.27411840       3.00936549       4.11642491
30
Lattice="6.10905207 0.00140253 0.00140696 1.04510657 6.07931302 0.00425315 2.06018456 0.75445503 7.65817395" Properties=species:S:1:pos:R:3 enthalpy=-3668342.60296157 pbc="T T T"
H        3.49395464       6.38149685       5.09831025
H        2.45381712       1.24690701       1.73994913
H        3.43112387       3.11716331       0.50973691
H        1.46265037       4.52478826       0.75856981
H        2.51378219       5.41238753       2.94532946
H        3.30631587       2.07299245       3.82841635
H        6.55531596       2.56444711       2.00268046
H        5.50213525       1.71427276       0.10210588
H        3.49740832       1.09243386       7.15248274
H        4.47078261       2.91191959       5.98121119
H        6.52626832       4.48038668       2.58813454
H        6.56866284       3.66783639       6.28333460
H        6.54300096       5.85583089       6.80341029
H        5.47485572       5.91736765       1.20223332
H        6.57245529       1.56234514       5.60696807
H        4.42442404       3.91670446       2.49844948
H        3.40611924       4.15517992       4.54311197
H        5.52769949       4.94886489       4.74919899
H        7.48267399       3.35591481       4.22019237
H        2.52530854       4.42009805       6.51465750
Lu       2.37841926       3.38318769       2.32098426
Lu       4.60163075       6.05531166       3.20200369
Lu       7.54774155       5.60265963       4.85862144
Lu       5.45081019       2.79529375       4.02702766
Lu       2.43125282       2.40390964       5.78733497
Lu       4.51949402       5.06414747       6.60971109
Lu       5.51096692       3.84794252       0.64450719
Lu       6.47784398       0.49502272       1.54516699
Lu       5.52416614       1.80858815       7.43134858
N        5.51584025       0.79486225       3.44880274
30
Lattice="6.14065127 0.00084355 0.00200593 1.01830453 6.093081 -0.00086788 2.06454048 0.6668195 7.6309001" Properties=species:S:1:pos:R:3 enthalpy=-3668342.56238053 pbc="T T T"
H        2.52626170       0.49961576       4.97226243
H        2.37245559       1.37794031       1.63865077
H        3.45583954       3.45609922       0.20750203
H        1.48271269       4.75913164       0.65310928
H        6.51751759       4.67171414       2.48876664
H        3.38844647       2.30006013       3.70209366
H        6.62309362       2.74931246       1.90989089
H        7.63936021       2.62243163       7.49879084
H        4.41762458       4.26121283       2.41005992
H        4.60576162       3.08039944       5.85030267
H        7.58084827       3.59257672       4.13007799
H        6.56709407       5.98613273       6.68366968
H        3.55633995       1.22546389       7.03071616
H        5.47994364       6.09346098       1.08821749
H        6.66647079       1.81458193       5.52901878
H        4.28270059       2.24265954       1.55246706
H        3.48491573       4.39317009       4.56078069
H        5.60522559       5.10877373       4.65395929
H        2.53400864       5.56135993       2.80683364
H        2.44603472       4.56610463       6.39384648
Lu       2.45814356       3.51615904       2.14057461
Lu       4.66674045       6.31886155       3.08544807
Lu       7.64324561       5.77575526       4.74663256
Lu       5.54896220       3.01116373       3.86841434
Lu       2.51515179       2.57080361       5.66678268
Lu       4.49016957       5.21832129       6.42169588
Lu       5.53180566       4.02780497       0.58959748
Lu       6.53167691       0.69612890       1.46283559
Lu       5.59718200       1.99278232       7.37253003
N        5.61924128       0.96647793       3.40670205
30
Lattice="6.1391284 0.00358834 -0.0008875 0.98413849 6.06031118 -0.00359648 2.01828333 0.66586849 7.67590478" Properties=species:S:1:pos:R:3 enthalpy=-3668342.54834865 pbc="T T T"
H        2.35062047       0.47727385       4.95744832
H        2.34891514       1.46897405       1.71484145
H        3.37870257       3.51519391       0.27285365
H        1.37885746       4.74215900       0.88794189
H        2.47493187       5.54446726       2.90757721
H        4.27390869       1.26981483       5.53413711
H        6.56458894       2.98625040       2.08442878
H        7.53733139       2.71990303       7.58933538
H        3.48246544       1.37321794       7.34709502
H        4.45172922       3.32589808       5.97944713
H        4.53644338       4.33844640       2.53893063
H        6.54402777       1.91145624       5.57332334
H        6.43131136       5.95173983       6.82761923
H        5.37721045       6.13333808       1.20599159
H        8.60148566       6.59014767       6.97134685
H        4.29128114       2.42722595       1.68132273
H        3.33049474       2.37418654       3.81237051
H        5.44372917       5.05896274       4.73142827
H        7.53032742       3.68965926       4.20408035
H        2.40321458       4.48507912       6.39471967
Lu       2.51847327       3.55795728       2.26745265
Lu       3.55108963       0.27504107       3.19859603
Lu       7.51225028       5.82479450       4.90007095
Lu       5.44989783       2.91597994       4.03261856
Lu       2.47756230       2.49448267       5.76774862
Lu       4.38900542       5.36123379       6.55956821
Lu       5.45419525       4.06982738       0.57263450
Lu       6.47671076       0.78329284       1.46285732
Lu       5.45532694       2.03201839       7.43897028
N        5.60721982       0.88593637       3.37307580
