26
Lattice="5.57939837 -0.05492032 0.03399569 -2.11150264 5.20696546 -0.00611932 -0.29752621 -2.47092352 8.38592175" Properties=species:S:1:pos:R:3 enthalpy=-815163.956963289 pbc="T T T"
H        1.85970610      -0.25356877       5.27847824
H        0.44659762       4.39532106       0.32753430
H        3.74381575      -0.60640400       3.00355287
H       -0.16256383       1.30436600       6.24662337
H       -0.45841083       2.18082961       1.99873267
H        2.69075317       2.95099851       1.29228110
H        0.45713364      -0.36999083       2.63636367
H        1.89779317       1.72603872       2.63644130
H        3.27090352      -0.93845258       7.70720501
H        2.94143530       2.07036660       6.90151470
H        3.30120786       1.91611532       7.53439410
H        1.84875649       2.42321284       4.87976288
Lu       0.47658685       1.15031517       4.03924893
H        1.18489991       3.98679080       3.05711929
H        3.78603862      -1.00259761       7.17509459
H       -0.87367104       1.53583166       1.97318505
H       -0.32722492       3.02607364       3.92263723
H        4.02760972       1.22233934       4.12158849
H        2.31513740       0.35708431       5.24770431
H        0.79909016      -0.64575504       8.35735917
H        3.11568806       3.58751442       1.29028399
H       -0.17450099      -0.62169525       4.90166691
H        0.04671950       4.71086636       0.87104012
H        0.69651030      -0.68950803       7.62254101
H        0.36118468       1.85460348       6.20911273
Lu       3.25948352       3.01953077       3.51885723
26
Lattice="5.54214389 0.03827872 0.00177702 2.16082283 5.23603262 0.00674944 2.14833367 2.04121897 8.39968442" Properties=species:S:1:pos:R:3 enthalpy=-815163.954629071 pbc="T T T"
H        6.18356020       3.92873166       5.27367178
H        6.13960699       3.64440264       0.88805101
H        5.16804320       2.33538450       3.02695271
H        3.17844205       4.94942339       6.25047267
H        3.79252604       5.03622661       1.98757635
H        3.21604730       1.92414547       1.28515103
H        6.61323317       5.32204568       2.65654641
H        2.44347168       3.14350002       2.66488495
H        4.65454886       2.43445785       6.81525249
H        2.31486962       2.72203943       7.56047657
H        7.44870796       2.80797179       8.18120386
H        3.09473326       2.89522756       4.92084812
Lu       8.00553296       4.71801364       4.06483201
H        4.71755121       2.94843082       2.98287057
H        4.98462005       2.51519873       7.47743021
H        3.37127166       5.67611440       1.99711637
H        4.48740247       4.80013396       4.11080220
H        6.64321837       1.35901375       3.93746161
H        6.64312927       3.32102812       5.31201161
H        5.54540939       5.44992022       7.19784383
H        3.63702925       1.28488639       1.28842558
H        6.63478088       5.98769409       4.91508183
H        5.72531776       3.40934902       0.31488626
H        5.14040940       5.37391416       7.81704902
H        8.14816291       5.48562463       6.22011602
Lu       3.09444215       1.37546434       3.52358366
26
Lattice="5.5907088 -0.04274542 -0.00230305 -2.14024213 5.17802938 0.03570348 -2.53059775 -0.93529168 8.43106327" Properties=species:S:1:pos:R:3 enthalpy=-815163.945006987 pbc="T T T"
H        3.51305584       0.26971235       5.33638426
H        3.60845798       0.85149154       0.83701367
H        2.05432320       1.29102399       3.02970401
H       -1.90949260       4.19864905       6.29379296
H       -1.58139030       3.64233746       2.02893970
H        0.94329457       2.94213330       1.30697294
H       -0.28372191       1.10982940       2.67415878
H        1.76090780       4.14650067       2.68349648
H       -3.29661268       2.22506503       6.92638474
H       -2.23526253      -0.50871861       8.02507851
H       -1.50085460      -0.46256690       8.12111464
H        1.76795265       3.44598034       4.94389874
Lu      -0.28548229      -0.41964033       4.06896603
H        2.45577028       1.93807296       2.99554070
H       -2.95784136       1.93849648       7.52394044
H       -1.14552494       4.27336914       2.03718663
H       -1.56613782       2.91177270       4.14173600
H       -0.39331166       4.70199426       3.97812771
H       -1.68926474       0.96797651       5.30402024
H       -0.16895901       2.38751102       7.13375145
H        0.52560864       2.30039656       1.30988689
H        0.36635328       1.33693354       4.92089296
H        3.33907213       1.20824012       0.24005757
H       -0.35492410       2.66009771       7.80113092
H        0.47089810      -0.25963586       6.21899219
Lu       0.38679862       2.86357106       3.54071102
26
Lattice="5.62554316 -0.05686139 0.03955951 -2.40353901 5.28961064 -0.02067661 -0.08599907 -2.89055614 8.20449865" Properties=species:S:1:pos:R:3 enthalpy=-815163.939762322 pbc="T T T"
H        1.83564334      -0.51639816       5.02465993
H        0.26763478       4.93750157       0.29978903
H        1.59105850       4.29675756       2.68787687
H       -0.53625402       1.36253847       6.07635046
H       -0.44768684       1.60625546       1.92671728
H        2.94915512       2.50259411       1.34795627
H        0.54884023      -0.66670564       2.71172676
H        1.84083058       1.53294635       2.68357254
H        3.84610183      -1.14725690       6.71036851
H        2.70736994       1.85966691       7.13331534
H        3.14163630       1.90222480       7.73653024
H        1.68714247       2.17262276       4.91934913
Lu       0.35280217       0.93309334       3.98262998
H        1.10222080       3.72322338       2.80345768
H        3.39857313      -1.04457366       7.29622316
H       -0.43973248       0.85216356       1.79965767
H       -0.44049694       2.78004034       3.57954813
H        3.95091619       1.00848087       4.15539345
H        2.33099336       0.05354187       4.91600285
H        0.64344079      -0.72613313       7.42182051
H        3.37781209       3.13662790       1.34314760
H       -0.21449767      -0.84810243       4.91500107
H        2.29534394      -0.13900479       0.92730996
H        0.92034619      -0.53510136       8.08466817
H        0.09802849       1.78389653       6.09740460
Lu       3.13374745       2.81542368       3.60034859
26
Lattice="5.54459881 0.04217882 -0.01286296 2.16996623 5.20630774 0.00365009 2.68788878 1.51600838 8.42222645" Properties=species:S:1:pos:R:3 enthalpy=-815163.939721297 pbc="T T T"
H        4.41367995       2.32220374       3.11847626
H        4.75019924       2.31616723       7.54460149
H        6.33008261       2.67853290       5.42676449
H        2.23760923       0.63054143       2.18979041
H        4.28730370       5.11366493       6.42101145
H        7.39634862       4.33701672       7.11891840
H        3.04046750       2.43662065       5.75423641
H        6.60476873       5.54935323       5.75943163
H        6.19989706       2.92723442       0.85953874
H        5.01275227       0.80017470       0.77647845
H        5.07012438       0.21053645       0.32942278
H        6.56880044       4.85659739       3.49653335
Lu       3.03031405       0.91619323       4.34692663
H        5.87595584       3.28831161       5.37073584
H        6.40699062       3.14936152       1.53930336
H        9.41868992       5.80164597       6.42274557
H        4.39775161       4.24585487       4.48506557
H        6.55577741       0.84223826       4.28412999
H        4.86465475       1.70723483       3.14858922
H        3.23469313       3.35796689       1.18252997
H        7.81508004       3.69628031       7.12604481
H        2.40521433       2.69772539       3.50001905
H        5.13134228       2.62295771       8.10668588
H        3.64034929       3.61074859       0.61267458
H        5.03962873       5.41766464       2.16615150
Lu       7.95002206       4.24751665       4.88726799
26
Lattice="5.49239007 0.03357823 -0.03270668 2.15169007 5.22258188 0.02369152 3.51551883 1.09957234 8.42267007" Properties=species:S:1:pos:R:3 enthalpy=-815163.935143292 pbc="T T T"
H        6.76090283       3.53331876       5.31451782
H        5.88326866       3.20852537       0.31558063
H        5.73060745       1.88380169       2.97988887
H        9.20517410       4.89390014       6.16935155
H        4.31982005       4.83608566       2.00464370
H        3.83882579       1.53483797       1.23634620
H        7.17496958       4.91110858       2.62396405
H        3.00404405       2.74685408       2.62299701
H        5.79761254       2.45149564       7.63900447
H        8.61640638       1.62702661       6.84803603
H        8.31088760       1.39310907       7.48545139
H        3.68993405       2.47294149       4.86285621
Lu       8.54526979       4.28612662       4.03023012
H        5.33745333       2.53484008       3.03451187
H        5.48473245       1.82041230       7.40420639
H        3.86764045       5.45556588       1.98418173
H        5.07653320       4.31591431       3.86802694
H        7.25265494       0.90748773       4.11661241
H        7.14976693       2.87804609       5.27750568
H        6.90826196       4.72826251       7.71848893
H        4.25662290       0.89407513       1.24412518
H        7.17118745       5.55063058       4.90863665
H        6.33140781       3.42580418       0.86924151
H        3.26884004       3.49806407       0.01752323
H        9.30354028       4.14145016       6.20816338
Lu       3.67189893       0.96529157       3.46751201
26
Lattice="5.63020377 -0.06169479 0.04379927 -2.26321383 5.23769354 -0.01185916 -0.26213875 -3.29603875 8.34116011" Properties=species:S:1:pos:R:3 enthalpy=-815163.933236566 pbc="T T T"
H        1.80804879      -0.55939564       5.21298575
H       -0.18880372       4.36879387       0.87459761
H        3.85331883      -0.99593224       2.86006258
H       -0.40705621       1.15021641       6.18199102
H       -0.63619186       0.95858871       1.86294720
H        2.79832641       2.50372475       1.35035162
H        0.44948639      -0.71415524       2.69176983
H        1.85655619       1.40751163       2.68796787
H        3.72419358      -1.17065389       7.51898837
H        2.56994788       0.97982877       7.63417421
H        2.49209217       1.71764305       7.66496738
H        1.72545175       2.11641230       4.91465378
Lu       0.37742394       0.85158895       4.02745255
H        1.11396618       3.65674285       2.95772723
H        3.99652057      -1.26729597       6.83203840
H       -0.42526657       1.68703359       1.96005191
H       -0.41753036       2.71906183       3.75844702
H        3.98039866       0.90988216       4.16366414
H        2.27486349       0.04147100       5.15692105
H        0.88449369      -1.49725601       7.44882140
H        3.22730562       3.13864998       1.34018590
H       -0.22446350      -0.92643663       4.92785057
H        0.16498590       4.02898075       0.31398020
H        1.11360237      -1.82052732       8.07820271
H        0.19130212       1.62067872       6.17978980
Lu       3.17330234       2.70890356       3.58877315
26
Lattice="5.62127439 -0.09664966 0.04014161 -2.45098159 5.32126938 -0.08334365 -0.05270015 -2.88280052 8.08048749" Properties=species:S:1:pos:R:3 enthalpy=-815163.932953928 pbc="T T T"
H        1.81050111      -0.49513388       4.95291271
H        0.24223263       4.81888448       0.27295632
H        1.57767592       4.29224169       2.59940131
H       -0.56724571       1.38699712       5.97802424
H       -0.47662399       1.59106580       1.84552331
H        2.96739267       2.51605803       1.23920888
H        0.57498138      -0.66411762       2.66009792
H        1.81490979       1.53678091       2.58037048
H        3.85144274      -1.16136363       6.57834756
H        2.67291758       1.88710821       6.96654555
H        3.11775422       1.90111429       7.56388732
H        1.67083921       2.18624775       4.82256798
Lu       0.33177188       0.94968615       3.89579195
H        1.08240050       3.72342295       2.71437496
H        3.40930917      -1.07117981       7.17041226
H       -0.46720209       0.83712220       1.71834782
H       -0.45212293       2.79745297       3.45728990
H        3.92369021       1.00287655       4.08026584
H        2.31886705       0.05848436       4.82148944
H        0.66132527      -0.70800947       7.29512533
H        3.38632962       3.15633820       1.25739988
H       -0.22598042      -0.82675394       4.84492302
H        2.31753871      -0.13158421       0.88174356
H        0.95261906      -0.54691241       7.96023271
H        0.06765191       1.80626836       6.00961631
Lu       3.11717114       2.81152615       3.49694122
26
Lattice="5.53023857 0.04342301 0.02103283 2.1204905 5.19425924 0.03896616 2.39776723 -0.99518129 8.41033458" Properties=species:S:1:pos:R:3 enthalpy=-815163.931854506 pbc="T T T"
H        7.99798196       3.96228915       3.12700383
H        8.09980418       3.33076966       7.63666954
H        6.57462380       2.94050960       5.43209947
H        2.65142296       0.01765411       2.19236675
H        2.99074121       0.60147360       6.44324504
H        5.50930802       1.29559402       7.15032162
H        4.23611054       3.11877284       5.80514287
H        6.27225715       0.07319654       5.80975977
H        1.29988674       1.98641617       1.24893059
H        2.40525759       4.69563735       0.39054051
H        3.14515840       4.75343497       0.38221695
H        6.27258555       0.76154534       3.53877106
Lu       4.24705106       4.64213905       4.40423227
H        6.98284375       2.29666752       5.45524472
H        1.95573288       2.20693867       0.97786365
H        3.42800920      -0.02935653       6.43706534
H        2.97344397       1.30031396       4.32787649
H        4.15283059      -0.48314340       4.50543038
H        2.85050320       3.25951773       3.14325120
H        4.47399359       1.82592126       1.40324409
H        5.09110279       1.93769686       7.15796904
H        4.90372857       2.88347492       3.56296943
H        7.82805966       2.99006892       8.24188913
H        4.35259033       1.59108225       0.70632913
H        5.04116667       4.50251264       2.27668429
Lu       4.91317650       1.36165259       4.94941074
26
Lattice="5.57207581 0.04781129 0.02620914 2.17812899 5.19513396 0.03051614 2.56401932 -1.08835715 8.34803246" Properties=species:S:1:pos:R:3 enthalpy=-815163.930899471 pbc="T T T"
H        3.00424688       3.17011175       3.17913398
H        8.35800171       3.31628553       7.54686132
H        6.74519666       2.85423896       5.41860176
H        2.75648495      -0.02111145       2.15468518
H        3.05841847       0.49679492       6.39333296
H        5.61610834       1.15852197       7.09184527
H        4.42450300       3.04728208       5.74207717
H        6.42588250      -0.00298150       5.73926880
H        1.93675312       2.31069058       0.99201455
H        2.70249931       4.90807858       0.74316515
H        3.08839145       4.65316480       0.16279724
H        6.45185176       0.69803534       3.48379874
Lu       4.44474776       4.58091833       4.35264429
H        7.13934331       2.20377135       5.46085197
H        6.85336888       2.16695064       1.30933539
H        3.49813082      -0.13101311       6.38647587
H        3.12691049       1.23159229       4.27312587
H        6.46971964       4.63280922       4.50622852
H        8.17956296       3.86929683       3.18365133
H        4.47860815       1.87486841       1.32182198
H        5.19198680       1.79627734       7.10655385
H        5.07570562       2.81958913       3.49978278
H        8.03573133       3.01659696       8.14803715
H        4.37583892       1.57272694       0.64868163
H        5.21301363       4.46693625       2.21879377
Lu       5.07279340       1.28761834       4.87821170
26
Lattice="5.53320712 0.08055818 0.02294765 2.19318143 5.25315518 0.0845438 0.01408399 2.79383153 8.34786978" Properties=species:S:1:pos:R:3 enthalpy=-815163.930627356 pbc="T T T"
H        3.72570340       6.48125996       5.28346491
H        1.52723094       1.55040106       0.88322331
H        2.56572722       2.84831665       3.01115310
H        6.67798692       5.51512809       6.28787744
H        6.10273134       5.42889398       2.06209770
H        4.54812009       3.27702141       1.33563016
H        3.28254674       5.10109921       2.69596223
H        5.29291122       2.05901807       2.67854888
H        4.86430546       7.27198096       7.46157380
H        2.14574093       7.41922586       7.68101696
H        2.37883206       7.07782064       8.29767965
H        4.60512769       2.27775049       4.91925858
Lu       1.88281114       5.67696104       4.10166344
H        3.02072820       2.23919345       2.95861438
H        3.08340425       2.54346318       7.05072898
H        6.53483795       4.79520367       2.06312387
H        5.39224595       5.62422771       4.16205007
H        1.09469012       3.79834393       3.94805542
H        1.06241580       1.82688069       5.24871555
H        4.30286276       4.65773504       7.07483391
H        4.13627345       3.92333033       1.32582373
H        3.24714222       4.40318106       4.94402838
H        1.93031367       1.75899481       0.29236285
H        4.62126966       4.63982304       7.74813434
H        1.68231555       4.89825914       6.22812025
Lu       4.63712770       3.81301999       3.55432701
26
Lattice="5.57865151 -0.04869197 0.00627674 -2.11805727 5.17582905 0.03413324 -2.82962327 -1.22460247 8.44923315" Properties=species:S:1:pos:R:3 enthalpy=-815163.928796373 pbc="T T T"
H       -1.78883550       0.88313336       5.31025046
H        3.52102923       0.77213948       0.87886980
H        1.97797754       1.20578057       3.04815910
H       -2.03441705       4.05316847       6.28914455
H       -1.62550144       3.59017898       2.01446479
H        0.89260012       2.85455161       1.32207923
H       -0.35967071       1.03188826       2.67899340
H        1.69224256       4.06239296       2.69259733
H       -3.12243333       1.67148597       7.47618201
H       -4.18922194       4.00118200       7.86681389
H       -2.43008605      -0.54386407       7.98808904
H        1.69863692       3.35791846       4.95288262
Lu      -0.37133767      -0.49843827       4.07469973
H        2.38782312       1.84800462       3.03170969
H        1.77613677       1.67949996       7.19008399
H       -1.18960433       4.22039904       2.02988943
H       -1.64113263       2.82683109       4.11841401
H        1.65971456      -0.56299961       3.97168283
H       -2.17579232       0.22674940       5.34678897
H       -0.58301944       2.05443333       7.19662175
H        0.46885178       2.21664981       1.32447749
H        0.27526782       1.25494653       4.94149601
H        3.12484791       1.04888497       0.31159868
H       -0.69565241       2.33745698       7.87575545
H        0.37476296      -0.42053953       6.24002490
Lu       0.31851752       2.77858498       3.55038272
26
Lattice="5.596796 -0.0483652 0.00472074 -2.12586895 5.15887934 0.03954493 -2.63626267 -1.04622921 8.47747039" Properties=species:S:1:pos:R:3 enthalpy=-815163.928570501 pbc="T T T"
H       -1.75929046       0.92701660       5.32056184
H        3.60529237       0.81013694       0.85903136
H        2.02653845       1.24740352       3.04661193
H       -1.96285853       4.13754708       6.31238005
H       -1.62208734       3.57339071       2.04890624
H        0.92321093       2.91492872       1.33370117
H       -0.31672095       1.07082566       2.68580686
H        1.72617105       4.10493227       2.71052262
H       -2.86300732       1.80377140       7.50461140
H       -2.27588885      -0.65571752       7.97441329
H       -1.58228742      -0.60661253       8.23336195
H        1.73128780       3.39000054       4.96292854
Lu      -0.33867526      -0.45339175       4.08461654
H        2.42166361       1.89767956       3.00653844
H        2.08679160       1.97217664       7.21807590
H       -1.19588104       4.21066467       2.05123612
H       -1.59622529       2.86490646       4.17042969
H        1.69238008      -0.50322047       3.94330025
H        3.46176763       0.21586887       5.36553624
H       -0.29147383       2.26931224       7.15043181
H        0.50040350       2.27690170       1.32178931
H        0.31141515       1.29613642       4.94210712
H        3.32456811       1.14200740       0.25335620
H       -0.41632411       2.51896618       7.84110553
H        0.41514850      -0.30463195       6.23533593
Lu       0.35240336       2.81841920       3.55757945
26
Lattice="5.55954435 0.02802139 -0.02324388 2.23179328 5.2113285 0.01706323 2.48765828 1.0851826 8.4730757" Properties=species:S:1:pos:R:3 enthalpy=-815163.927258162 pbc="T T T"
H        6.43205338       3.52941798       5.33530746
H        6.06658050       3.08747840       0.28473915
H        5.30139790       1.83676173       2.86910197
H        8.92666240       4.92735904       6.22410532
H        3.30556692       5.27004873       1.98884714
H        3.27547293       1.40708019       1.32175883
H        6.83570890       4.87942993       2.73261504
H        2.61578512       2.71638122       2.72866621
H        4.88136370       2.22645368       7.55921405
H        7.27006648       1.86738075       7.65827815
H        7.99551988       1.73327978       7.57505376
H        3.31447289       2.48443682       4.96038866
Lu       8.25465678       4.28302969       4.09851518
H        4.93316077       2.49787172       2.95341107
H        4.76247951       1.98451097       6.86461635
H        3.82383272       4.71019227       2.04075076
H        4.71379903       4.28860268       3.89624810
H        6.88701170       0.91444217       4.16417825
H        6.82123188       2.87434771       5.30012494
H        6.21861465       4.80908281       7.59619114
H        3.68393849       0.76022360       1.32108794
H        6.89066947       5.55486470       4.99746233
H        6.44584369       3.30417892       0.88854757
H        5.85332031       4.56125639       8.19454657
H        3.49527459       4.15167761       6.28671696
Lu       3.27246530       0.95529895       3.58749419
26
Lattice="5.56342899 -0.0957434 0.08860951 -2.4813791 5.35906705 -0.06915612 -0.02877288 -3.10693929 8.16666692" Properties=species:S:1:pos:R:3 enthalpy=-815163.926376619 pbc="T T T"
H        1.76277168      -0.56692566       5.09798522
H        2.24153962      -0.10690981       0.97316372
H        1.58855642       4.20911234       2.55193412
H       -0.56976818       1.26810270       6.04578220
H       -0.46864092       1.44057782       1.88417448
H        3.00552345       2.42441941       1.32652534
H        0.65805088      -0.75069039       2.72774153
H        1.80797737       1.48558405       2.65561257
H        3.73168145      -1.39524521       6.66937585
H        2.59541970       1.70022053       7.09061885
H        3.00260046       1.65234371       7.71248082
H        1.64554525       2.09634316       4.90689837
Lu       0.33178836       0.85812397       3.95374105
H        1.08216768       3.65412452       2.68232235
H        3.27850068      -1.31770018       7.25489133
H       -0.37679903       0.69220456       1.76198061
H       -0.43072230       2.70969251       3.47717554
H        3.86712338       0.93119602       4.17352482
H        2.29025165      -0.03822668       4.94024327
H        0.53887714      -0.82070534       7.48884611
H        3.44407494       3.05042139       1.34386648
H       -0.25041250      -0.92849528       4.86966068
H        0.09075277       5.06954016       0.26164440
H        0.81638427      -0.57511560       8.13350225
H        0.06400550       1.68974230       6.07611376
Lu       3.08521949       2.75434271       3.59154441
26
Lattice="5.71836719 -0.03700174 -0.07545012 -2.4793585 5.21287424 0.14467508 -2.25956174 -1.36027468 8.12209434" Properties=species:S:1:pos:R:3 enthalpy=-815163.922281587 pbc="T T T"
H        1.97915036       2.36979071       3.14369187
H       -3.36539405       2.05602377       7.26893506
H        3.35315759       0.49055040       5.31580047
H       -0.56115845       3.70074959       2.11254702
H       -0.91242214       3.54792277       6.31543582
H       -0.22730886       0.05050595       6.88015925
H        1.57302956       3.60954421       5.54427732
H        0.25144986       1.47910730       5.54691992
H        3.52642587       0.73366731       1.39138627
H        0.33435797       0.55858352       1.32853996
H        0.58822711       0.20301911       0.72575937
H       -0.48552247       1.34904699       3.34136406
Lu       0.06942949       3.09946415       4.25636150
H       -2.02702123       1.20743927       5.32355307
H        3.31733346       1.09152504       0.77295748
H       -0.24016410       3.88956851       6.45001195
H       -1.94114469       3.08607623       4.65150343
H        1.60774390      -0.29411089       3.98106592
H        1.65225652       1.68475566       3.21914401
H        1.91415231       3.46030077       0.83876503
H       -0.62077631      -0.60559141       6.86024031
H        1.43960709       4.36390107       3.33615187
H       -2.87574597       1.87363697       7.79971981
H        2.02674708       3.32349267       0.11652939
H       -0.72249007       2.95708089       2.10252142
Lu      -0.34474281      -0.25870052       4.61660212
26
Lattice="5.51992083 0.02881781 -0.02663862 2.07431342 5.21296767 0.00239889 2.28014739 0.46259507 8.55494725" Properties=species:S:1:pos:R:3 enthalpy=-815163.897817596 pbc="T T T"
H        6.31999196       3.44659454       5.40128398
H        5.55560624       3.22689858       0.32802783
H        5.33053958       1.79707943       3.01546945
H        8.73359888       4.83198242       6.20337544
H        3.81699231       4.66322936       2.04571306
H        3.39766628       1.38930647       1.30768828
H        6.71021811       4.79942082       2.69339135
H        2.58012512       2.62635965       2.69574267
H        6.49337311       5.57195486       7.19000468
H        7.76698469       1.52252063       7.38807690
H        7.08740905       1.51721175       7.68860454
H        3.23842619       2.38244443       4.96078064
Lu       8.09859280       4.17697533       4.08928063
H        4.92752297       2.44293210       3.05279041
H        6.46394605       5.49079920       7.93002328
H        3.35764037       5.27703582       2.02677379
H        4.60311279       4.21387350       3.94664258
H        1.34376418       0.78545446       4.18249001
H        6.72136331       2.79787069       5.38244891
H        4.95919392       2.83565063       7.59417801
H        3.82528410       0.75497454       1.32560655
H        6.72836676       5.46304897       4.95012758
H        5.95832699       3.42823014       0.92203309
H        4.91240367       3.32660557       8.14962023
H        3.31546573       4.05621880       6.28913388
Lu       3.27792544       0.86781281       3.55711333
