13
Lattice="6.0237737 0.00145199 0.00258204 3.00704072 5.20393283 0.00063494 1.02015765 1.73999267 8.37691306" Properties=species:S:1:pos:R:3 enthalpy=-3668055.35507942 pbc="T T T"
H        2.07209202       3.47567418       8.09640848
Lu       0.95476130       1.62129110       3.08718889
N        3.08343848       5.15421765       1.69841077
Lu       5.06370878       1.69147576       5.88886984
Lu       7.13248783       5.17044270       3.01299753
Lu       2.04508443       3.42993153       5.95434077
Lu       2.06515128       3.50067545       0.33579512
Lu       5.07142862       5.16621837       5.87623348
Lu       3.98234396       3.48570929       3.09355118
H        5.10121697       5.16546213       3.69018482
H        5.07675484       5.11387454       8.06132656
Lu       5.06547714       1.62571477       0.34429129
Lu       4.96719293       5.14770327       0.28262168
13
Lattice="6.07559093 0.00171226 -0.00328051 3.0363457 5.1923373 -0.00030219 1.94568371 0.0005367 8.39102312" Properties=species:S:1:pos:R:3 enthalpy=-3668055.29540653 pbc="T T T"
H        5.66380455       3.68136387       7.85228938
Lu       3.53899431       3.78942670       2.88994906
N        5.75588255       0.24873460       1.48396283
Lu       2.57762516       1.95918444       5.71512513
Lu       6.57732126       1.89928829       2.88749244
Lu       5.61501690       3.73055255       5.71388164
Lu       4.74649709       1.93236708       0.06770844
Lu       5.61009682       0.24911446       5.76845711
Lu       3.77892682       0.24837234       2.72611431
H        3.60131736       0.24869420       6.34671760
H        8.70220638       2.00920148       7.85036608
Lu       1.57189273       0.24777739       0.09818159
Lu       7.78377433       3.75750372       0.06656483
13
Lattice="6.01226419 0.00092943 0.00316559 2.95284326 5.22464317 -0.00397583 2.05752497 -0.04352725 8.38725847" Properties=species:S:1:pos:R:3 enthalpy=-3668055.28667604 pbc="T T T"
H        1.66698950       0.17874015       0.38128067
Lu       3.53967086       0.18968985       5.43001073
N        7.70145418       0.11881700       6.82999193
Lu       7.62015403       3.65057205       2.58511933
Lu       3.67774045       3.78041928       5.38901165
Lu       1.62095253       0.15894688       2.53413371
Lu       5.77297604       0.15673610       8.24460045
Lu       4.63220932       1.91684966       2.65055580
Lu       6.70998051       1.80309544       5.50778072
H        3.60743065       3.64751413       3.22477335
H        7.59329298       3.62652017       0.41865471
Lu       5.61389915       3.67805072       8.13934980
Lu       8.61544912       1.82954635       8.23234261
13
Lattice="6.02453028 0.00279535 0.00083748 3.05057297 5.23401361 0.00332666 2.04059287 0.01567084 8.3861083" Properties=species:S:1:pos:R:3 enthalpy=-3668055.26947391 pbc="T T T"
H        6.38652291       0.19510889       7.90156646
Lu       4.53268379       0.22425835       2.88537957
N        6.37658600       0.14204741       1.47338627
Lu       6.46783297       3.69168696       5.72388237
Lu       4.39322973       3.81397194       2.81748650
Lu       6.44322655       0.21934863       5.76667231
Lu       2.29970494       0.20230983       0.06645930
Lu       3.42370259       1.95300957       5.68334566
Lu       7.38085150       1.83696967       2.80712625
H        4.45248440       3.68339874       6.30357410
H        6.47430555       3.64579521       7.88110045
Lu       2.44239672       3.72421775       0.08714277
Lu       5.46525622       1.86652791       0.08569235
13
Lattice="6.00343575 -8.059e-05 -0.00112186 3.03168004 5.24200986 -0.00073882 0.97151977 1.71799948 8.39062252" Properties=species:S:1:pos:R:3 enthalpy=-3668055.26049107 pbc="T T T"
H        7.15672098       4.94192612       0.41811356
Lu       5.29479513       1.45252174       5.39407408
N        4.15755515       6.62042133       6.82895987
Lu       1.15030223       1.44455229       2.57252416
Lu       2.11760337       3.08103215       5.49632601
Lu       7.21472206       4.94518156       2.58663436
Lu       6.09425469       6.64506700       8.23553173
Lu       4.17798316       3.17978950       2.58776807
Lu       5.14488823       5.03805639       5.43562578
H        5.15711635       1.44681124       3.23180141
H        4.21218784       3.12763459       0.41970385
Lu       6.18220192       3.08949883       8.14049437
Lu       3.18569825       4.96581489       8.23049306
13
Lattice="6.02643791 -0.00209737 0.0033965 3.04486564 5.23703981 0.00194967 1.06713395 1.67778834 8.34241224" Properties=species:S:1:pos:R:3 enthalpy=-3668055.23982145 pbc="T T T"
H        5.56312558       3.37852537       3.22221804
Lu       4.44279043       5.04059898       2.54828996
N        8.54946206       5.20479944       1.20222430
Lu       5.56762509       3.38459518       5.33689628
Lu       4.61084150       1.59904747       2.59639035
Lu       2.50958271       1.63445164       5.30905007
Lu       4.62431408       1.63650831       8.09523792
Lu       8.56893894       5.10910333       5.44452909
Lu       7.53803705       3.53258894       2.43557128
H        7.55811676       3.36552625       5.97149926
H        5.56557139       3.41599540       7.51766952
Lu       7.55723203       3.25641007       8.12280448
Lu       4.56593997       5.18776835       8.12153123
13
Lattice="6.03321536 0.00131184 0.00153986 3.07600984 5.23197561 -0.00269928 0.97276258 1.71273458 8.37911348" Properties=species:S:1:pos:R:3 enthalpy=-3668055.23791105 pbc="T T T"
H        7.22577318       4.93143563       0.50134080
Lu       5.31942767       1.44033046       5.56370591
N        4.20479013       6.62187020       6.90680635
Lu       1.16733897       1.45184262       2.63057910
Lu       2.13145777       3.06745650       5.57033562
Lu       7.25562335       4.92343849       2.65872069
Lu       6.15136883       6.62114091       8.30980302
Lu       4.18529794       3.20059267       2.66906568
Lu       5.17550035       5.03684085       5.48641087
H        5.17123151       1.44824037       2.08340308
H        4.25914366       3.11326031       0.52458525
Lu       6.24945639       3.07894851       8.29398897
Lu       3.23868174       4.94128912       8.29962968
13
Lattice="6.00712878 -6.75e-05 0.00165495 -3.00009631 5.23643322 -0.00458777 -0.95945502 -1.80558246 8.3426352" Properties=species:S:1:pos:R:3 enthalpy=-3668055.2192598 pbc="T T T"
H       -0.41256991       2.84225247       3.32938768
Lu       0.46948208       1.05004237       2.61016033
N        2.52376539       4.59968586       1.24980795
Lu      -0.43494461       2.81252613       5.43682646
Lu       0.69772742       4.51099252       2.66677556
Lu      -0.44978109      -0.68348039       5.49031619
Lu       0.62844000       1.10131360       8.19029515
Lu       2.56045123       1.06171559       5.35798743
Lu       3.60615682       2.99171680       2.61285104
H        3.56281183      -0.69147287       4.82318543
H       -0.47370310       2.79453452       7.63511371
Lu       3.61412357      -0.76508163       8.27025526
Lu      -2.51936186       2.77906622       8.19121528
13
Lattice="6.01770149 -0.00219053 -0.00112849 -2.9765797 5.23737061 -0.00326785 -0.9838316 -1.68483821 8.34320331" Properties=species:S:1:pos:R:3 enthalpy=-3668055.21742277 pbc="T T T"
H        2.20099137      -0.42543828       5.00866366
Lu       4.19079894      -0.57885502       5.72700477
N        2.27422871       3.04898801       7.08052289
Lu       2.21493153      -0.46529890       2.90167430
Lu      -1.87854430       3.13455945       5.66350354
Lu      -0.77066116       1.25278376       2.97043999
Lu       4.21571277       3.05756188       0.16672000
Lu       2.21655199       2.97616465       2.84633505
Lu       1.35276797       1.38253460       5.72109192
H        1.23825369       1.26369806       3.55610872
H       -0.71261642       4.76110062       0.70549548
Lu       1.17098489       1.19283705       0.05132758
Lu       1.33487796       4.76076440       0.14344995
13
Lattice="6.01577288 -0.0024748 0.00260121 -2.95668452 5.23381201 0.00380903 -0.96565135 -1.65784876 8.38101757" Properties=species:S:1:pos:R:3 enthalpy=-3668055.19842514 pbc="T T T"
H        3.40574562      -1.48250361       7.97057486
Lu       4.55597656       0.25538148       2.96889391
N        0.39514538       0.18425389       1.55968091
Lu       3.44411218       2.02282057       5.80812937
Lu      -1.58556641       3.83911901       2.96951426
Lu       0.50350742       3.73888361       5.80836012
Lu       2.33878215       0.19051088       0.15709979
Lu       0.46858733       0.30624732       5.80610865
Lu       1.37241330       1.85476328       2.92109199
H        1.46580507       2.01131290       5.11057985
H       -2.53242342       1.98292836       7.97177036
Lu       2.47600786       3.74273480       0.26053868
Lu      -0.55400074       1.87914244       0.15707981
13
Lattice="6.02173389 -0.00011887 -0.00110312 3.01547057 5.239683 0.00220031 0.96577829 1.68954497 8.33739346" Properties=species:S:1:pos:R:3 enthalpy=-3668055.19761874 pbc="T T T"
H        3.44636789       2.36606017       3.22467640
Lu       2.56391689       4.16583532       2.53711198
N        0.48217577       0.61864324       1.17878353
Lu       3.45447247       2.35413839       5.34194896
Lu       2.33472397       0.70732514       2.51392346
Lu       3.44349990       5.84104578       5.42473215
Lu       2.37449642       4.01863199       8.11847567
Lu       6.47094883       4.09432665       5.30783176
Lu       5.44537234       2.22813734       2.53771418
H        5.47753063       5.83950078       5.92577608
H        3.48324596       2.32886170       7.53514987
Lu       5.39680919       5.88437951       8.09249295
Lu       5.53286367       2.32356883       8.11363185
13
Lattice="5.99258507 -0.00500479 0.00440123 -3.06020576 5.27676463 0.00343971 -0.9148674 -1.8174614 8.37631532" Properties=species:S:1:pos:R:3 enthalpy=-3668055.17241001 pbc="T T T"
H        1.87831620       0.31027648       0.48893067
Lu      -2.30840663       3.81653687       5.45091331
N        1.91792472       3.70355425       6.88236629
Lu       1.80126168       3.79593277       2.62210917
Lu       0.85328919       2.13337107       5.55801751
Lu       1.82495185       0.28110453       2.64357651
Lu       2.99898041      -1.50926653       8.29936016
Lu      -1.17468086       2.02252793       2.80687066
Lu       3.90793392       0.12590536       5.61776880
H       -2.19017083       3.79394306       3.29027434
H        3.82342636       0.35582754       7.77591739
Lu       2.83392740       2.08122732       8.19297551
Lu      -0.14249267       0.17343732       8.29057073
13
Lattice="6.09024581 -0.00245854 0.00231278 -3.04539659 5.19136194 -0.00012334 -1.12332069 -1.75200888 8.37637385" Properties=species:S:1:pos:R:3 enthalpy=-3668055.16026855 pbc="T T T"
H       -0.12233353      -0.38844565       7.82997373
Lu       0.91078027       1.21319655       2.81169835
N       -2.99730941       4.82123390       1.42611714
Lu      -0.11304899       3.04200894       5.50658853
Lu       4.14023695      -0.45227917       2.65318121
Lu      -0.10904078      -0.42636491       5.70237528
Lu       2.07340559       3.10681310       0.00121286
Lu       2.95221504       1.30722723       5.61893837
Lu      -2.18277830       3.09138195       2.74094312
H        3.95078498      -0.44250966       6.20306691
H        0.85014559       4.74993393       0.49480123
Lu       5.07406946       1.22239391      -0.00012234
Lu      -1.13303892       4.75470835       0.05269588
13
Lattice="6.02948479 -0.00039417 -0.00355838 -2.98722395 5.21159595 0.00239776 -1.00710897 -1.71436444 8.38152163" Properties=species:S:1:pos:R:3 enthalpy=-3668055.15796778 pbc="T T T"
H        2.36263834       0.43877467       5.05942820
Lu       1.49815506       2.24362283       5.76203789
N       -0.69887434      -1.23692613       7.11725465
Lu      -0.69573567       2.18272296       2.90689044
Lu       4.37500397       0.32334400       5.69218800
Lu       2.31840403       3.93850911       2.85664046
Lu       1.30898929       2.13369315       0.15043655
Lu       2.30741060       0.45208850       2.97991013
Lu      -1.75353803       3.98970356       5.76736352
H        4.31650603       0.45462984       3.54118124
H       -0.70483936       2.22913631       0.72995206
Lu       4.42467273       0.44440078       0.05749619
Lu      -1.70632610       4.01078824       0.13709122
13
Lattice="5.99127507 -0.00140377 0.00197683 -3.07780292 5.25096985 0.00153391 -0.99750682 -1.72832031 8.40648035" Properties=species:S:1:pos:R:3 enthalpy=-3668055.15067109 pbc="T T T"
H        0.89277090       1.76958753       8.06879672
Lu       1.94399911       3.61106976       3.04062862
N       -0.05659751      -0.03682053       1.64479448
Lu      -2.09464093       3.55696353       5.85753025
Lu       1.85438981       0.08252463       2.96708568
Lu       0.93276048       1.81186234       5.92451872
Lu       0.94940464       1.70300359       0.27823633
Lu       3.94719153       0.06351628       5.73206644
Lu      -1.00382694       1.73311075       2.89808921
H        3.90648472       0.05822744       3.59752715
H       -1.09897326       1.91128552       0.65976615
Lu      -2.10140861       3.64018943       0.30898305
Lu       4.05169086       0.04771693       0.21734443
13
Lattice="6.0800206 -0.00168492 0.0019463 -3.0718727 5.20290819 -0.00461261 -1.06633501 -1.77827939 8.34620851" Properties=species:S:1:pos:R:3 enthalpy=-3668055.14512802 pbc="T T T"
H       -0.06988874      -0.41001839       7.89824159
Lu       0.91159192       1.20329641       2.88423625
N       -2.99993784       4.81666651       1.49747134
Lu      -0.11240361       3.02522572       5.55771140
Lu       4.16033572      -0.45382545       2.81702692
Lu      -0.12233867      -0.46680771       5.75681059
Lu       2.04345132       3.13555156       0.07057793
Lu       2.95648680       1.25999155       5.65534618
Lu      -2.17748375       3.09795147       2.80413822
H        3.98598448      -0.44390774       5.01358957
H        0.82779050       4.76734964       0.61257356
Lu       5.06974088       1.24195796       0.17475109
Lu      -1.13950725       4.77730217       0.12024834
13
Lattice="6.03717381 -0.00103076 0.00745026 3.03830702 5.22016871 -0.00272705 4.04143957 -0.03302007 8.37120829" Properties=species:S:1:pos:R:3 enthalpy=-3668055.11625535 pbc="T T T"
H        5.51788897       3.39272649       3.22011745
Lu       4.40993796       5.06205221       2.53075471
N        8.53136922       5.21034033       1.18755630
Lu       8.50723481       1.65580218       5.39146684
Lu       4.60678310       1.60214991       2.53189463
Lu       8.53708720       5.14202941       5.45014525
Lu      10.62511290       5.13702924       8.15145127
Lu       5.50395252       3.39997580       5.31834440
Lu       7.52387963       3.55304795       2.53962243
H        4.47925142       1.67773641       5.96841917
H        8.51563419       1.70423638       7.55098267
Lu      10.52230817       1.57177666       8.14463072
Lu       7.48068428       3.47310986       8.15004531
13
Lattice="6.06217529 -0.00014081 -0.0020999 3.02890724 5.19940011 0.00052998 0.97682283 1.72813886 8.41870362" Properties=species:S:1:pos:R:3 enthalpy=-3668055.11200264 pbc="T T T"
H        2.41562424       3.73577746       0.52244828
Lu       3.53168741       5.55596298       5.57141803
N        1.36563214       2.03053657       6.93019961
Lu       5.46573176       2.01842214       2.67701059
Lu       6.55960163       3.71342247       5.56140460
Lu       2.45909897       3.79205612       2.67901189
Lu       2.38637254       3.68611393       8.32393334
Lu       5.53343224       5.50558560       2.72762039
Lu       3.35611950       2.02076853       5.63996844
H        7.50349487       5.49910704       1.99096075
H        5.45875445       2.06609798       0.52515637
Lu       5.52187091       2.03298099       8.30770630
Lu       5.40961388       5.56110478       8.33015597
13
Lattice="6.04006435 0.0070089 0.00371621 3.05135658 5.21858068 0.00160679 1.0925435 1.7404188 8.41259389" Properties=species:S:1:pos:R:3 enthalpy=-3668055.10969248 pbc="T T T"
H        1.87613008       0.28199348       0.52297708
Lu       2.81643620       2.02175406       5.56328943
N        6.96851728       2.05718265       6.93189867
Lu       7.97249473       3.79505231       2.71897812
Lu       8.99253637       5.56762782       5.64552376
Lu       4.89223432       5.47581871       2.68194227
Lu       5.01382266       2.03916513       8.33071366
Lu       4.87882971       2.04053668       2.68551508
Lu       5.97768726       3.65729441       5.55595645
H        3.90674131       3.75939351       1.98640903
H        4.83752100       2.10634323       0.52958351
Lu       4.89311557       5.58698429       8.30437866
Lu       7.92504149       3.72335740       8.32720558
13
Lattice="6.01645339 0.00168949 0.00129423 3.10565795 5.25144325 -5.079e-05 1.04214401 1.77073618 8.37911114" Properties=species:S:1:pos:R:3 enthalpy=-3668055.10666663 pbc="T T T"
H        3.08420142       5.16599098       7.68874563
Lu       3.20970400       5.35305145       5.47434610
N        1.17413847       1.80208142       6.74039362
Lu       5.10485010       1.76515138       2.55600607
Lu       6.15027429       3.42248761       5.40655844
Lu       2.13445657       3.52594674       2.61643151
Lu       2.07298797       3.44102711       8.07515133
Lu       5.16396138       5.26628137       2.56286936
Lu       3.02617225       1.73925002       5.35772780
H        5.18347534       5.21484075       4.76025875
H        5.21845651       5.25069961       0.37578344
Lu       5.18349472       1.80897194       8.11029129
Lu       5.11916470       5.36101407       8.16622988
