10
Lattice="4.15455677 -0.03852969 -0.03486482 0.67804634 4.20972607 -0.00928455 0.67345126 0.33440815 4.20105898" Properties=species:S:1:pos:R:3 enthalpy=-407533.807014177 pbc="T T T"
H        1.14517822       3.80620636       0.61537204
H        2.02473637       4.23145538       2.73101427
H        1.35359346       3.96225743       2.50777148
H        3.07858654       1.06235855       1.81604199
H        1.13771187       2.07980667       2.46937607
H        4.70338596       3.28598336       0.52419553
H        3.76146820       3.39623946       3.84547732
H        1.72701953       1.58635768       4.17667780
H        4.69233306       1.94728701       1.96257318
Lu       3.83786179       1.19688539       3.82360649
10
Lattice="4.29357754 0.00871739 -0.02480283 -0.46189593 4.23822419 0.02295263 0.65044619 -0.59793245 4.04104294" Properties=species:S:1:pos:R:3 enthalpy=-407533.806428115 pbc="T T T"
H        1.09752194       0.37743839       3.95663289
H        2.95803092       0.10578370       0.89362452
H        2.50769381       0.31759993       0.32468954
H        1.93850651       2.90981028       2.59184444
H        2.44973423       1.79697923       3.98323950
H        0.63901097       0.42841970       0.42004322
H        4.25098375       0.73794742       2.53114853
H       -0.18283519       2.87039108       0.84202558
H        2.37624904       2.26355433       0.42997475
Lu       4.05792778       2.88376906       2.98016546
10
Lattice="4.29560921 0.04413563 -0.02550439 -0.71132225 4.00347035 0.01665822 0.87203031 -0.07989832 4.2290786" Properties=species:S:1:pos:R:3 enthalpy=-407533.6903952 pbc="T T T"
H        0.97126958       0.00185803       3.79046321
H        1.19708031       2.53781325       2.57923670
H        1.81378773       2.10152349       2.66887337
H        3.54940756       1.99353467       1.41464044
H        1.85420240       2.03133894       0.40092985
H        0.70707045       0.05233438       0.04242891
H        1.25817931       0.10171160       1.74801232
H        3.51245660       0.24604347       3.59554965
H        1.21232632       2.42938155       0.48602796
Lu       2.65522382       3.87865238       1.45550606
10
Lattice="4.07062865 -0.05734888 -0.00584183 0.68438657 4.22487251 -0.0120461 0.13411292 0.83096407 4.22540832" Properties=species:S:1:pos:R:3 enthalpy=-407533.689792259 pbc="T T T"
H        1.57340006       3.83238007       0.80388822
H        1.74109043       4.59922768       2.76426851
H        1.27536895       4.01754659       2.91528412
H        2.93911732       0.84182146       1.69469411
H        3.50575640       3.13641781       2.37100891
H        1.03795213       3.29774119       0.73663369
H        3.58536729       3.66373141       4.08694231
H        1.41627145       2.06661580       3.69710735
H        3.38927932       2.54372073       1.88479503
Lu       3.46978006       1.47533345       3.77503005
