5
Lattice="3.42833534 0.00733119 -0.00450454 -1.72652201 2.96060734 -0.00557359 0.02522642 -1.97725988 8.46360545" Properties=species:S:1:pos:R:3 enthalpy=-1223682.43692405 pbc="T T T"
N        2.11646430      -0.59612527       2.68538303
Lu       0.39648499       0.38477357       1.50145995
Lu       0.40321244       0.39699473       6.94666019
Lu      -1.31576570       1.37516622       4.14038312
H        0.40212219       0.39419235       4.79956350
5
Lattice="3.41879801 -0.00257282 -0.00301355 1.71601761 2.95843351 0.00363201 0.01815312 1.96954302 8.40839407" Properties=species:S:1:pos:R:3 enthalpy=-1223682.35107504 pbc="T T T"
N        4.35198395       2.23275968       2.34520038
Lu       2.64183171       1.24950081       1.18086408
Lu       4.36447372       4.20635071       6.61134643
Lu       2.65001609       3.22217832       3.82503000
H        2.65401794       3.22272804       6.00200911
5
Lattice="3.39945848 -0.00323859 -0.00065252 1.71545236 2.93683332 -0.00050898 1.64998815 0.95856259 8.57506307" Properties=species:S:1:pos:R:3 enthalpy=-1223682.31366173 pbc="T T T"
N        2.17990411       0.84160623       5.82290671
Lu       3.88006278       1.81720360       7.06155776
Lu       3.88414963       1.81772061       1.54000395
Lu       5.58395460       2.79462287       4.41017014
H        3.88323175       1.81875246       3.67931498
5
Lattice="3.38862014 0.01108625 -0.01063783 -1.66390074 2.95492348 -0.00801897 -0.68737342 -1.55953312 8.57628815" Properties=species:S:1:pos:R:3 enthalpy=-1223682.29319646 pbc="T T T"
N       -0.65949598      -0.47421323       5.82368908
Lu       1.02960097       0.53185593       7.03608954
Lu       1.06903395       0.48447014       1.54597178
Lu      -0.65558388       1.50319822       4.39061673
H        1.04164552       0.50911019       3.68302290
5
Lattice="3.40446747 -0.00480448 0.00948608 1.71346573 2.9457677 0.00263114 1.64864622 -1.00835681 8.4392387" Properties=species:S:1:pos:R:3 enthalpy=-1223682.26580924 pbc="T T T"
N        2.71546340       2.62350626       2.22699814
Lu       4.41533518       1.63872974       0.84268962
Lu       4.37723336       1.62283569       6.45461430
Lu       2.70248703       0.65607236       3.48153176
H        2.67201124       0.64346788       7.05938092
5
Lattice="3.41674481 -0.01072511 0.00631927 1.72135487 2.95340808 0.00494962 0.00951693 0.00552204 8.43329662" Properties=species:S:1:pos:R:3 enthalpy=-1223682.25822022 pbc="T T T"
N        1.78504207       1.89780417       2.37079837
Lu       3.49059956       0.90667643       1.20285819
Lu       1.78633120       1.89918522       6.62800986
Lu       3.49657162       2.87815443       3.85450161
H        3.49959677       2.88066862       5.99744509
5
Lattice="3.42860666 -0.00107553 0.0080642 1.71290495 2.95813574 0.00632012 1.89217174 -0.65110085 8.49972811" Properties=species:S:1:pos:R:3 enthalpy=-1223682.15098383 pbc="T T T"
N        2.03780176      -0.09882059       6.11859106
Lu       5.47556027       1.88040657       7.28211286
Lu       2.06689110       1.88784588       1.85120252
Lu       3.76476721       0.89798337       4.62932118
H        3.77576396       0.89729750       2.47235542
